* NGSPICE file created from SAR_top.ext - technology: gf180mcuD

.subckt SAR_top VDDD clks VDDA Vinp Vinn Vcom Set VCM Reset out_11 out_10 out_1 out_9
+ out_2 out_8 out_3 out_7 out_4 out_6 out_5 D Valid A B C
X0 SAR_logic_dac_0.SAR_Asynchronous_top_neg_logic_0/SAR_Asynchronous_top_0/SAR_Asynchronous_Logic_integration_0/SAR_Asynchronous_Logic_8/D_reset_FF_0.Q.t0 a_47520_n7312.t4 a_48644_n6052# VDDD.t398 pfet_03v3 ad=2.535p pd=9.1u as=2.535p ps=9.1u w=3.9u l=0.28u
X1 SAR_logic_dac_0.SAR_Asynchronous_top_neg_logic_0/SAR_Asynchronous_top_0/SAR_Asynchronous_Logic_integration_0/SAR_Asynchronous_Logic_7/D_reset_FF_0.nQ SAR_logic_dac_0.SAR_Asynchronous_top_neg_logic_0/SAR_Asynchronous_top_0/SAR_Asynchronous_Logic_integration_0/SAR_Asynchronous_Logic_7/D_reset_FF_0.Q.t3 VDDD.t57 VDDD.t56 pfet_03v3 ad=2.535p pd=9.1u as=2.535p ps=9.1u w=3.9u l=0.28u
X2 a_39352_10796.t0 a_37288_11028.t2 a_41964_10796.t0 VDDD.t54 pfet_03v3 ad=2.535p pd=9.1u as=2.535p ps=9.1u w=3.9u l=0.28u
X3 a_n60504_11030.t1 a_n60570_11594.t5 VDDD.t61 VDDD.t60 pfet_03v3 ad=2.535p pd=9.1u as=2.535p ps=9.1u w=3.9u l=0.28u
X4 a_n29810_n3108.t8 a_n29878_n2740.t2 VCM.t21 SAR_logic_dac_0.VSSD nfet_03v3 ad=0.9516p pd=4.34u as=0.9516p ps=4.34u w=1.56u l=0.28u
X5 a_n31752_n40600.t5 a_n32888_n40380.t2 a_n29338_n40380# SAR_logic_dac_0.VSSD nfet_03v3 ad=0.9516p pd=4.34u as=0.9516p ps=4.34u w=1.56u l=0.28u
X6 SAR_logic_dac_0.VSSD a_n18580_10796# SAR_logic_dac_0.SAR_Asynchronous_top_neg_logic_0/SAR_Asynchronous_top_0/SAR_Asynchronous_Logic_integration_0/SAR_Asynchronous_Logic_1/D_reset_FF_1.Q.t2 SAR_logic_dac_0.VSSD nfet_03v3 ad=0.9516p pd=4.34u as=0.9516p ps=4.34u w=1.56u l=0.28u
X7 a_9346_n69460.t2 a_10462_n71400.t2 cap_mim_2f0_m4m5_noshield c_width=10u c_length=10u
X8 a_11088_n1944# a_8090_n1944# SAR_logic_dac_0.SAR_Asynchronous_top_neg_logic_0/SAR_Asynchronous_top_0/SAR_Asynchronous_Logic_integration_0/SAR_Asynchronous_Logic_7/D_reset_FF_1.Q.t0 VDDD.t301 pfet_03v3 ad=2.535p pd=9.1u as=2.535p ps=9.1u w=3.9u l=0.28u
X9 a_14304_n3204.t2 a_8208_n2082.t2 a_14118_n1944.t1 SAR_logic_dac_0.VSSD nfet_03v3 ad=0.9516p pd=4.34u as=0.9516p ps=4.34u w=1.56u l=0.28u
X10 VDDA.t8 a_2716_n69502# a_9280_n69596# VDDA.t7 pfet_03v3 ad=2.6p pd=9.3u as=2.6p ps=9.3u w=4u l=0.28u
X11 SAR_logic_dac_0.VSSD a_76828_n3204.t5 a_78304_n3204.t1 SAR_logic_dac_0.VSSD nfet_03v3 ad=0.9516p pd=4.34u as=0.9516p ps=4.34u w=1.56u l=0.28u
X12 a_40336_12056# Set.t0 VDDD.t80 VDDD.t79 pfet_03v3 ad=2.535p pd=9.1u as=2.535p ps=9.1u w=3.9u l=0.28u
X13 a_n28504_11030.t1 a_n44820_n28246.t5 VDDD.t217 VDDD.t216 pfet_03v3 ad=2.535p pd=9.1u as=2.535p ps=9.1u w=3.9u l=0.28u
X14 SAR_logic_dac_0.SAR_Asynchronous_top_neg_logic_0/SAR_Asynchronous_top_0/SAR_Asynchronous_Logic_integration_0/SAR_Asynchronous_Logic_4/D_reset_FF_0.nQ SAR_logic_dac_0.SAR_Asynchronous_top_neg_logic_0/SAR_Asynchronous_top_0/SAR_Asynchronous_Logic_integration_0/SAR_Asynchronous_Logic_4/D_reset_FF_0.Q.t3 SAR_logic_dac_0.VSSD SAR_logic_dac_0.VSSD nfet_03v3 ad=0.9516p pd=4.34u as=0.9516p ps=4.34u w=1.56u l=0.28u
X15 a_20240_12186.t1 a_4388_11030.t2 VDDD.t205 VDDD.t204 pfet_03v3 ad=2.535p pd=9.1u as=2.535p ps=9.1u w=3.9u l=1.1u
X16 a_9107_n62067.t10 a_n61752_n40600.t15 cap_mim_2f0_m4m5_noshield c_width=5u c_length=5u
X17 SAR_logic_dac_0.VSSD a_66122_n1986.t2 a_72208_n2836.t0 SAR_logic_dac_0.VSSD nfet_03v3 ad=0.9516p pd=4.34u as=0.9516p ps=4.34u w=1.56u l=0.28u
X18 a_9107_n62067.t11 a_n31752_n40600.t0 cap_mim_2f0_m4m5_noshield c_width=5u c_length=5u
X19 a_n15944_n28246# a_n23256_n28014.t2 a_n21028_n28246.t4 SAR_logic_dac_0.VSSD nfet_03v3 ad=0.9516p pd=4.34u as=0.9516p ps=4.34u w=1.56u l=0.28u
X20 SAR_logic_dac_0.SAR_Asynchronous_top_neg_logic_0/SAR_Asynchronous_top_0/SAR_Asynchronous_Logic_integration_0/SAR_Asynchronous_Logic_0/D_reset_FF_1.nQ SAR_logic_dac_0.SAR_Asynchronous_top_neg_logic_0/SAR_Asynchronous_top_0/SAR_Asynchronous_Logic_integration_0/SAR_Asynchronous_Logic_0/D_reset_FF_1.Q.t9 SAR_logic_dac_0.VSSD SAR_logic_dac_0.VSSD nfet_03v3 ad=0.9516p pd=4.34u as=0.9516p ps=4.34u w=1.56u l=0.28u
X21 SAR_logic_dac_0.VSSD a_44828_n3204.t5 a_46304_n3204.t0 SAR_logic_dac_0.VSSD nfet_03v3 ad=0.9516p pd=4.34u as=0.9516p ps=4.34u w=1.56u l=0.28u
X22 a_n3766_n71400.t4 a_n3310_n70140.t2 Vinp.t4 SAR_logic_dac_0.VSSD nfet_03v3 ad=3.66p pd=13.219999u as=3.66p ps=13.219999u w=6u l=0.28u
X23 a_12112_n40380.t1 a_11362_n40380.t2 VDDD.t276 VDDD.t275 pfet_03v3 ad=2.535p pd=9.1u as=2.535p ps=9.1u w=3.9u l=0.28u
X24 a_n83796_6688.t3 Reset.t0 SAR_logic_dac_0.VSSD SAR_logic_dac_0.VSSD nfet_03v3 ad=0.9516p pd=4.34u as=0.9516p ps=4.34u w=1.56u l=0.28u
X25 a_n6028_n28246.t2 a_n7012_n28246.t4 a_n6028_n26986# VDDD.t843 pfet_03v3 ad=2.535p pd=9.1u as=2.535p ps=9.1u w=3.9u l=0.28u
X26 a_79624_n28014# a_n41314_n2406.t3 SAR_logic_dac_0.VSSD SAR_logic_dac_0.VSSD nfet_03v3 ad=0.9516p pd=4.34u as=0.9516p ps=4.34u w=1.56u l=0.28u
X27 SAR_logic_dac_0.VSSD Set.t1 a_31820_n28246.t2 SAR_logic_dac_0.VSSD nfet_03v3 ad=0.9516p pd=4.34u as=0.9516p ps=4.34u w=1.56u l=0.28u
X28 a_180_n26986# clks.t0 VDDD.t259 VDDD.t258 pfet_03v3 ad=2.535p pd=9.1u as=2.535p ps=9.1u w=3.9u l=0.28u
X29 VDDD.t82 Set.t2 a_81296_n1944# VDDD.t81 pfet_03v3 ad=2.535p pd=9.1u as=2.535p ps=9.1u w=3.9u l=0.28u
X30 a_n79816_10796.t1 Set.t3 a_n79816_12056# VDDD.t83 pfet_03v3 ad=2.535p pd=9.1u as=2.535p ps=9.1u w=3.9u l=0.28u
X31 a_n55664_12056# Set.t4 VDDD.t85 VDDD.t84 pfet_03v3 ad=2.535p pd=9.1u as=2.535p ps=9.1u w=3.9u l=0.28u
X32 SAR_logic_dac_0.VSSD SAR_logic_dac_0.VSSD cap_mim_2f0_m4m5_noshield c_width=5u c_length=5u
X33 SAR_logic_dac_0.SAR_Asynchronous_top_neg_logic_0/SAR_Asynchronous_top_0/SAR_Asynchronous_Logic_integration_0/SAR_Asynchronous_Logic_6/D_reset_FF_1.Q.t1 a_67496_11030.t2 a_84438_6650# VDDD.t296 pfet_03v3 ad=2.535p pd=9.1u as=2.535p ps=9.1u w=3.9u l=0.28u
X34 a_n43562_6650# a_n60504_11030.t2 SAR_logic_dac_0.VSSD SAR_logic_dac_0.VSSD nfet_03v3 ad=0.9516p pd=4.34u as=0.9516p ps=4.34u w=1.56u l=1.1u
X35 VDDD.t272 a_35398_n1950.t3 a_34190_n3108.t5 VDDD.t271 pfet_03v3 ad=2.535p pd=9.1u as=2.535p ps=9.1u w=3.9u l=1.1u
X36 a_n3766_n71400.t10 a_n46938_n39340.t11 cap_mim_2f0_m4m5_noshield c_width=5u c_length=5u
X37 VDDD.t87 Set.t5 a_49296_n1944# VDDD.t86 pfet_03v3 ad=2.535p pd=9.1u as=2.535p ps=9.1u w=3.9u l=0.28u
X38 VCM.t16 a_3496_11030.t2 a_n16938_n39340.t1 SAR_logic_dac_0.VSSD nfet_03v3 ad=0.9516p pd=4.34u as=0.9516p ps=4.34u w=1.56u l=0.28u
X39 a_n53272_6688.t0 a_n57892_7810.t2 a_n58010_7948.t0 SAR_logic_dac_0.VSSD nfet_03v3 ad=0.9516p pd=4.34u as=0.9516p ps=4.34u w=1.56u l=0.28u
X40 VDDD.t878 Reset.t1 a_40988_7948# VDDD.t877 pfet_03v3 ad=2.535p pd=9.1u as=2.535p ps=9.1u w=3.9u l=0.28u
X41 a_n56648_10796.t3 a_n58712_11028.t2 a_n54036_10796.t4 VDDD.t229 pfet_03v3 ad=2.535p pd=9.1u as=2.535p ps=9.1u w=3.9u l=0.28u
X42 a_9107_n62067.t12 a_n46752_n40600.t7 cap_mim_2f0_m4m5_noshield c_width=5u c_length=5u
X43 a_21744_n28014.t0 a_20924_n28014.t2 SAR_logic_dac_0.VSSD SAR_logic_dac_0.VSSD nfet_03v3 ad=0.9516p pd=4.34u as=0.9516p ps=4.34u w=1.56u l=0.28u
X44 a_55600_n28246.t1 clks.t1 a_55600_n26986# VDDD.t260 pfet_03v3 ad=2.535p pd=9.1u as=2.535p ps=9.1u w=3.9u l=0.28u
X45 a_38176_6688.t0 a_38108_7810.t2 a_37990_7948.t0 VDDD.t717 pfet_03v3 ad=2.535p pd=9.1u as=2.535p ps=9.1u w=3.9u l=0.28u
X46 a_n75944_n28246# a_n84076_n28014.t2 a_n73180_n28246.t3 SAR_logic_dac_0.VSSD nfet_03v3 ad=0.9516p pd=4.34u as=0.9516p ps=4.34u w=1.56u l=0.28u
X47 SAR_logic_dac_0.VSSD a_n67012_n28246.t4 a_n66028_n28246.t2 SAR_logic_dac_0.VSSD nfet_03v3 ad=0.9516p pd=4.34u as=0.9516p ps=4.34u w=1.56u l=0.28u
X48 a_n88834_12056.t0 a_72208_n2082.t2 a_78118_n1944.t1 VDDD.t312 pfet_03v3 ad=2.535p pd=9.1u as=2.535p ps=9.1u w=3.9u l=0.28u
X49 a_9346_n69460.t2 a_10462_n71400.t1 cap_mim_2f0_m4m5_noshield c_width=10u c_length=10u
X50 a_n45716_n7312.t2 Set.t6 a_n45716_n6052# VDDD.t88 pfet_03v3 ad=2.535p pd=9.1u as=2.535p ps=9.1u w=3.9u l=0.28u
X51 a_n64400_n28246.t1 clks.t2 a_n64400_n26986# VDDD.t261 pfet_03v3 ad=2.535p pd=9.1u as=2.535p ps=9.1u w=3.9u l=0.28u
X52 a_n23256_n28014.t0 a_n24076_n28014.t2 VDDD.t309 VDDD.t308 pfet_03v3 ad=2.535p pd=9.1u as=2.535p ps=9.1u w=3.9u l=0.28u
X53 a_n56648_10796.t1 a_n57892_11028.t2 a_n88834_12056.t2 VDDD.t379 pfet_03v3 ad=2.535p pd=9.1u as=2.535p ps=9.1u w=3.9u l=0.28u
X54 a_42728_6688.t0 a_38108_7810.t3 a_37990_7948.t1 SAR_logic_dac_0.VSSD nfet_03v3 ad=0.9516p pd=4.34u as=0.9516p ps=4.34u w=1.56u l=0.28u
X55 a_n21564_n6052# Set.t7 VDDD.t90 VDDD.t89 pfet_03v3 ad=2.535p pd=9.1u as=2.535p ps=9.1u w=3.9u l=0.28u
X56 SAR_logic_dac_0.VSSD SAR_logic_dac_0.VSSD cap_mim_2f0_m4m5_noshield c_width=5u c_length=5u
X57 SAR_logic_dac_0.VSSD Reset.t2 a_9964_10796.t3 SAR_logic_dac_0.VSSD nfet_03v3 ad=0.9516p pd=4.34u as=0.9516p ps=4.34u w=1.56u l=0.28u
X58 a_n14820_n28246.t2 a_n15944_n28246# a_n14820_n26986# VDDD.t581 pfet_03v3 ad=2.535p pd=9.1u as=2.535p ps=9.1u w=3.9u l=0.28u
X59 SAR_logic_dac_0.SAR_Asynchronous_top_neg_logic_0/SAR_Asynchronous_top_0/SAR_Asynchronous_Logic_integration_0/SAR_Asynchronous_Logic_1/D_reset_FF_1.Q.t0 a_n28504_11030.t2 a_n11562_6650# VDDD.t210 pfet_03v3 ad=2.535p pd=9.1u as=2.535p ps=9.1u w=3.9u l=0.28u
X60 a_n23664_10796.t3 a_n24648_10796.t4 a_n23664_12056# VDDD.t319 pfet_03v3 ad=2.535p pd=9.1u as=2.535p ps=9.1u w=3.9u l=0.28u
X61 a_16644_n6052# Reset.t3 VDDD.t880 VDDD.t879 pfet_03v3 ad=2.535p pd=9.1u as=2.535p ps=9.1u w=3.9u l=0.28u
X62 a_n3766_n71400.t11 m4_n28600_n66758# cap_mim_2f0_m4m5_noshield c_width=5u c_length=5u
X63 SAR_logic_dac_0.VSSD a_n43562_6650# a_n46938_n39340.t14 SAR_logic_dac_0.VSSD nfet_03v3 ad=0.9516p pd=4.34u as=0.9516p ps=4.34u w=1.56u l=1.1u
X64 a_n3766_n71400.t12 a_n73502_6630.t18 cap_mim_2f0_m4m5_noshield c_width=5u c_length=5u
X65 a_n51172_n3204.t4 a_n55792_n2082.t2 a_n55910_n1944# SAR_logic_dac_0.VSSD nfet_03v3 ad=0.9516p pd=4.34u as=0.9516p ps=4.34u w=1.56u l=0.28u
X66 a_17296_n1944# a_14118_n1944.t4 a_12828_n3204.t3 VDDD.t74 pfet_03v3 ad=2.535p pd=9.1u as=2.535p ps=9.1u w=3.9u l=0.28u
X67 SAR_logic_dac_0.SAR_Asynchronous_top_neg_logic_0/SAR_Asynchronous_top_0/SAR_Asynchronous_Logic_integration_0/SAR_Asynchronous_Logic_0/D_reset_FF_1.Q.t3 a_n91612_11030.t2 a_n75760_12186.t1 SAR_logic_dac_0.VSSD nfet_03v3 ad=0.9516p pd=4.34u as=0.9516p ps=4.34u w=1.56u l=0.28u
X68 VDDD.t253 SAR_logic_dac_0.SAR_Asynchronous_top_neg_logic_0/SAR_Asynchronous_top_0/SAR_Asynchronous_Logic_integration_0/SAR_Asynchronous_Logic_4/D_reset_FF_1.Q.t9 SAR_logic_dac_0.SAR_Asynchronous_top_neg_logic_0/SAR_Asynchronous_top_0/SAR_Asynchronous_Logic_integration_0/SAR_Asynchronous_Logic_4/D_reset_FF_1.nQ VDDD.t252 pfet_03v3 ad=2.535p pd=9.1u as=2.535p ps=9.1u w=3.9u l=0.28u
X69 SAR_logic_dac_0.VSSD SAR_logic_dac_0.VSSD cap_mim_2f0_m4m5_noshield c_width=5u c_length=5u
X70 SAR_logic_dac_0.VSSD a_n55792_n2836.t2 a_n55792_n2082.t0 SAR_logic_dac_0.VSSD nfet_03v3 ad=0.9516p pd=4.34u as=0.9516p ps=4.34u w=1.56u l=0.28u
X71 a_n19172_n3204.t4 a_n23792_n2082.t2 a_n23910_n1944# SAR_logic_dac_0.VSSD nfet_03v3 ad=0.9516p pd=4.34u as=0.9516p ps=4.34u w=1.56u l=0.28u
X72 a_n63638_n40380.t0 a_n92570_11594.t5 SAR_logic_dac_0.VSSD SAR_logic_dac_0.VSSD nfet_03v3 ad=0.9516p pd=4.34u as=0.9516p ps=4.34u w=1.56u l=0.28u
X73 a_n15816_12056# SAR_logic_dac_0.SAR_Asynchronous_top_neg_logic_0/SAR_Asynchronous_top_0/SAR_Asynchronous_Logic_integration_0/SAR_Asynchronous_Logic_1/D_reset_FF_1.Q.t9 VDDD.t76 VDDD.t75 pfet_03v3 ad=2.535p pd=9.1u as=2.535p ps=9.1u w=3.9u l=0.28u
X74 a_12204_6688.t4 Reset.t4 SAR_logic_dac_0.VSSD SAR_logic_dac_0.VSSD nfet_03v3 ad=0.9516p pd=4.34u as=0.9516p ps=4.34u w=1.56u l=0.28u
X75 a_8997_n63033.t5 a_n3766_n71400.t13 a_9175_n63033.t11 SAR_logic_dac_0.VSSD nfet_03v3 ad=1.891p pd=7.42u as=1.891p ps=7.42u w=3.1u l=0.28u
X76 a_n22548_n7312.t3 a_n23792_n7080.t2 SAR_logic_dac_0.SAR_Asynchronous_top_neg_logic_0/SAR_Asynchronous_top_0/SAR_Asynchronous_Logic_integration_0/SAR_Asynchronous_Logic_4/D_reset_FF_1.Q.t0 VDDD.t225 pfet_03v3 ad=2.535p pd=9.1u as=2.535p ps=9.1u w=3.9u l=0.28u
X77 a_n79400_n28246.t2 a_n81028_n28246.t5 SAR_logic_dac_0.VSSD SAR_logic_dac_0.VSSD nfet_03v3 ad=0.9516p pd=4.34u as=0.9516p ps=4.34u w=1.56u l=0.28u
X78 a_25600_n26986# a_23972_n28246.t5 VDDD.t185 VDDD.t184 pfet_03v3 ad=2.535p pd=9.1u as=2.535p ps=9.1u w=3.9u l=0.28u
X79 m4_42400_n66758# a_28248_n40600.t7 cap_mim_2f0_m4m5_noshield c_width=5u c_length=5u
X80 a_27112_n40380.t0 a_26362_n40380.t2 SAR_logic_dac_0.VSSD SAR_logic_dac_0.VSSD nfet_03v3 ad=0.9516p pd=4.34u as=0.9516p ps=4.34u w=1.56u l=0.28u
X81 a_3352_n7430# a_2122_n1986.t2 SAR_logic_dac_0.SAR_Asynchronous_top_neg_logic_0/SAR_Asynchronous_top_0/SAR_Asynchronous_Logic_integration_0/SAR_Asynchronous_Logic_7/D_reset_FF_1.Q.t2 SAR_logic_dac_0.VSSD nfet_03v3 ad=0.9516p pd=4.34u as=0.9516p ps=4.34u w=1.56u l=0.28u
X82 m4_n28600_n66758# a_28062_n39340.t9 cap_mim_2f0_m4m5_noshield c_width=5u c_length=5u
X83 a_51744_n28014.t1 a_50924_n28014.t2 VDDD.t772 VDDD.t771 pfet_03v3 ad=2.535p pd=9.1u as=2.535p ps=9.1u w=3.9u l=0.28u
X84 m4_n28600_n66758# a_13062_n39340.t18 cap_mim_2f0_m4m5_noshield c_width=5u c_length=5u
X85 SAR_logic_dac_0.VSSD a_38108_7056.t2 a_38108_7810.t0 SAR_logic_dac_0.VSSD nfet_03v3 ad=0.9516p pd=4.34u as=0.9516p ps=4.34u w=1.56u l=0.28u
X86 a_n73180_n28246.t4 a_n92570_11594.t6 SAR_logic_dac_0.VSSD SAR_logic_dac_0.VSSD nfet_03v3 ad=0.9516p pd=4.34u as=0.9516p ps=4.34u w=1.56u l=0.28u
X87 a_n44338_n40380# a_n45422_n40600# SAR_logic_dac_0.VSSD SAR_logic_dac_0.VSSD nfet_03v3 ad=0.9516p pd=4.34u as=0.9516p ps=4.34u w=1.56u l=0.28u
X88 a_12789_n62288.t0 a_12126_n63187# SAR_logic_dac_0.VSSD SAR_logic_dac_0.VSSD nfet_03v3 ad=1.891p pd=7.42u as=1.891p ps=7.42u w=3.1u l=0.28u
X89 VDDD.t675 a_2738_n63132.t2 a_8997_n61931.t7 VDDD.t674 pfet_03v3 ad=1.5275p pd=6u as=1.5275p ps=6u w=2.35u l=0.28u
X90 a_6176_6688.t3 a_6108_7056.t2 a_5990_7948.t2 SAR_logic_dac_0.VSSD nfet_03v3 ad=0.9516p pd=4.34u as=0.9516p ps=4.34u w=1.56u l=0.28u
X91 SAR_logic_dac_0.SAR_Asynchronous_top_neg_logic_0/SAR_Asynchronous_top_0/SAR_Asynchronous_Logic_integration_0/SAR_Asynchronous_Logic_1/D_reset_FF_1.Q.t6 a_n25892_7810.t2 a_n19982_7948.t2 VDDD.t579 pfet_03v3 ad=2.535p pd=9.1u as=2.535p ps=9.1u w=3.9u l=0.28u
X92 SAR_logic_dac_0.VSSD Reset.t5 a_76064_n7312.t3 SAR_logic_dac_0.VSSD nfet_03v3 ad=0.9516p pd=4.34u as=0.9516p ps=4.34u w=1.56u l=0.28u
X93 a_n51936_n7312.t0 a_n53564_n7312.t5 SAR_logic_dac_0.VSSD SAR_logic_dac_0.VSSD nfet_03v3 ad=0.9516p pd=4.34u as=0.9516p ps=4.34u w=1.56u l=0.28u
X94 a_35496_11030.t0 a_n14820_n28246.t5 SAR_logic_dac_0.VSSD SAR_logic_dac_0.VSSD nfet_03v3 ad=0.9516p pd=4.34u as=0.9516p ps=4.34u w=1.56u l=0.28u
X95 SAR_logic_dac_0.VSSD SAR_logic_dac_0.VSSD cap_mim_2f0_m4m5_noshield c_width=5u c_length=5u
X96 a_9175_n63033.t3 a_9107_n62067.t13 a_8997_n61931.t5 SAR_logic_dac_0.VSSD nfet_03v3 ad=1.891p pd=7.42u as=1.891p ps=7.42u w=3.1u l=0.28u
X97 VDDD.t637 a_n61878_n2740.t2 a_n61878_n1986.t1 VDDD.t636 pfet_03v3 ad=2.535p pd=9.1u as=2.535p ps=9.1u w=3.9u l=0.28u
X98 a_77420_10796# a_70108_11028.t2 a_80184_10796.t0 VDDD.t649 pfet_03v3 ad=2.535p pd=9.1u as=2.535p ps=9.1u w=3.9u l=0.28u
X99 VDDD.t371 a_2122_n1986.t3 a_8208_n2836.t1 VDDD.t370 pfet_03v3 ad=2.535p pd=9.1u as=2.535p ps=9.1u w=3.9u l=0.28u
X100 Vinn.t4 a_9160_n69460.t2 a_9107_n62067.t5 SAR_logic_dac_0.VSSD nfet_03v3 ad=3.66p pd=13.219999u as=3.66p ps=13.219999u w=6u l=0.28u
X101 a_n16752_n40600.t4 a_n17888_n40380.t2 a_n16938_n39340.t8 VDDD.t669 pfet_03v3 ad=2.535p pd=9.1u as=2.535p ps=9.1u w=3.9u l=0.28u
X102 a_67988_n28246.t0 a_66744_n28014.t2 a_70600_n28246.t0 SAR_logic_dac_0.VSSD nfet_03v3 ad=0.9516p pd=4.34u as=0.9516p ps=4.34u w=1.56u l=0.28u
X103 a_n3766_n71400.t14 a_n73502_6630.t17 cap_mim_2f0_m4m5_noshield c_width=5u c_length=5u
X104 a_n19936_n7312.t0 a_n21564_n7312.t5 SAR_logic_dac_0.VSSD SAR_logic_dac_0.VSSD nfet_03v3 ad=0.9516p pd=4.34u as=0.9516p ps=4.34u w=1.56u l=0.28u
X105 a_16184_10796.t4 SAR_logic_dac_0.SAR_Asynchronous_top_neg_logic_0/SAR_Asynchronous_top_0/SAR_Asynchronous_Logic_integration_0/SAR_Asynchronous_Logic_5/D_reset_FF_1.Q.t9 SAR_logic_dac_0.VSSD SAR_logic_dac_0.VSSD nfet_03v3 ad=0.9516p pd=4.34u as=0.9516p ps=4.34u w=1.56u l=0.28u
X106 a_n81028_n26986# Set.t8 VDDD.t92 VDDD.t91 pfet_03v3 ad=2.535p pd=9.1u as=2.535p ps=9.1u w=3.9u l=0.28u
X107 a_n85272_6688.t4 a_n89892_7056.t2 a_n90010_7948.t3 VDDD.t628 pfet_03v3 ad=2.535p pd=9.1u as=2.535p ps=9.1u w=3.9u l=0.28u
X108 a_45420_10796# a_38108_11028.t2 a_48184_10796.t0 VDDD.t709 pfet_03v3 ad=2.535p pd=9.1u as=2.535p ps=9.1u w=3.9u l=0.28u
X109 VDDD.t285 a_72208_n2836.t2 a_72208_n2082.t1 VDDD.t284 pfet_03v3 ad=2.535p pd=9.1u as=2.535p ps=9.1u w=3.9u l=0.28u
X110 VDDD.t725 a_12909_n61250.t6 a_12789_n61114.t3 VDDD.t648 pfet_03v3 ad=2.535p pd=9.1u as=2.535p ps=9.1u w=3.9u l=0.28u
X111 a_9107_n62067.t14 a_n61752_n40600.t14 cap_mim_2f0_m4m5_noshield c_width=5u c_length=5u
X112 m4_42400_n66758# a_58248_n40600.t1 cap_mim_2f0_m4m5_noshield c_width=5u c_length=5u
X113 a_15520_n7312.t2 a_8208_n7080.t2 a_10436_n7312.t4 SAR_logic_dac_0.VSSD nfet_03v3 ad=0.9516p pd=4.34u as=0.9516p ps=4.34u w=1.56u l=0.28u
X114 a_3398_n1950.t2 a_2122_n2740.t2 SAR_logic_dac_0.SAR_Asynchronous_top_neg_logic_0/SAR_Asynchronous_top_0/SAR_Asynchronous_Logic_integration_0/SAR_Asynchronous_Logic_7/D_reset_FF_1.Q.t4 VDDD.t731 pfet_03v3 ad=2.535p pd=9.1u as=2.535p ps=9.1u w=3.9u l=0.28u
X115 a_6108_11028.t1 a_5288_11028.t2 VDDD.t515 VDDD.t514 pfet_03v3 ad=2.535p pd=9.1u as=2.535p ps=9.1u w=3.9u l=0.28u
X116 SAR_logic_dac_0.VSSD SAR_logic_dac_0.VSSD cap_mim_2f0_m4m5_noshield c_width=5u c_length=5u
X117 a_38972_n28246.t4 a_37988_n28246.t4 a_38972_n26986# VDDD.t537 pfet_03v3 ad=2.535p pd=9.1u as=2.535p ps=9.1u w=3.9u l=0.28u
X118 a_60662_n40380# a_59578_n40600# VDDD.t189 VDDD.t188 pfet_03v3 ad=2.535p pd=9.1u as=2.535p ps=9.1u w=3.9u l=0.28u
X119 SAR_logic_dac_0.VSSD a_39352_10796.t4 a_40336_10796.t3 SAR_logic_dac_0.VSSD nfet_03v3 ad=0.9516p pd=4.34u as=0.9516p ps=4.34u w=1.56u l=0.28u
X120 a_n54036_10796.t2 Reset.t6 a_n54036_12056# VDDD.t881 pfet_03v3 ad=2.535p pd=9.1u as=2.535p ps=9.1u w=3.9u l=0.28u
X121 SAR_logic_dac_0.VSSD clks.t3 a_n49400_n28246.t1 SAR_logic_dac_0.VSSD nfet_03v3 ad=0.9516p pd=4.34u as=0.9516p ps=4.34u w=1.56u l=0.28u
X122 a_n16752_n40600.t2 a_n18638_n40380.t2 a_n16938_n39340.t6 SAR_logic_dac_0.VSSD nfet_03v3 ad=0.9516p pd=4.34u as=0.9516p ps=4.34u w=1.56u l=0.28u
X123 SAR_logic_dac_0.VSSD Reset.t7 SAR_logic_dac_0.SAR_Asynchronous_top_neg_logic_0/SAR_Asynchronous_top_0/SAR_Asynchronous_Logic_integration_0/SAR_Asynchronous_Logic_0/D_reset_FF_0.Q.t2 SAR_logic_dac_0.VSSD nfet_03v3 ad=0.9516p pd=4.34u as=0.9516p ps=4.34u w=1.56u l=0.28u
X124 a_74728_6688.t4 a_70108_7056.t2 a_69990_7948.t3 VDDD.t670 pfet_03v3 ad=2.535p pd=9.1u as=2.535p ps=9.1u w=3.9u l=0.28u
X125 a_n3766_n71400.t15 a_n1938_n39340.t1 cap_mim_2f0_m4m5_noshield c_width=5u c_length=5u
X126 SAR_logic_dac_0.VSSD Set.t9 a_n43180_n28246.t1 SAR_logic_dac_0.VSSD nfet_03v3 ad=0.9516p pd=4.34u as=0.9516p ps=4.34u w=1.56u l=0.28u
X127 a_41362_n40380.t1 SAR_logic_dac_0.SAR_Asynchronous_top_neg_logic_0/SAR_Asynchronous_top_0/SAR_Logic_0.CK4.t5 VDDD.t736 VDDD.t735 pfet_03v3 ad=2.535p pd=9.1u as=2.535p ps=9.1u w=3.9u l=0.28u
X128 a_n7012_n28246.t2 a_n8256_n28014.t2 a_n4400_n28246.t4 SAR_logic_dac_0.VSSD nfet_03v3 ad=0.9516p pd=4.34u as=0.9516p ps=4.34u w=1.56u l=0.28u
X129 a_8208_n7080.t0 a_7388_n7080.t2 VDDD.t748 VDDD.t747 pfet_03v3 ad=2.535p pd=9.1u as=2.535p ps=9.1u w=3.9u l=0.28u
X130 a_7352_10796.t1 a_6108_11028.t2 a_9964_10796.t1 SAR_logic_dac_0.VSSD nfet_03v3 ad=0.9516p pd=4.34u as=0.9516p ps=4.34u w=1.56u l=0.28u
X131 a_n48480_n7312.t2 a_n56612_n7080.t2 a_n53564_n7312.t2 VDDD.t751 pfet_03v3 ad=2.535p pd=9.1u as=2.535p ps=9.1u w=3.9u l=0.28u
X132 a_9107_n62067.t10 a_n61752_n40600.t13 cap_mim_2f0_m4m5_noshield c_width=5u c_length=5u
X133 a_39348_7948# Set.t10 a_38176_6688.t1 VDDD.t93 pfet_03v3 ad=2.535p pd=9.1u as=2.535p ps=9.1u w=3.9u l=0.28u
X134 a_9107_n62067.t15 a_n31752_n40600.t1 cap_mim_2f0_m4m5_noshield c_width=5u c_length=5u
X135 a_n14704_n1944# a_n17882_n1944.t4 a_n19172_n3204.t1 VDDD.t580 pfet_03v3 ad=2.535p pd=9.1u as=2.535p ps=9.1u w=3.9u l=0.28u
X136 a_45420_10796# a_37288_11028.t3 a_40336_10796.t2 VDDD.t55 pfet_03v3 ad=2.535p pd=9.1u as=2.535p ps=9.1u w=3.9u l=0.28u
X137 a_12789_n62288.t1 a_8997_n61931.t8 a_12789_n61114.t7 VDDD.t645 pfet_03v3 ad=2.535p pd=9.1u as=2.535p ps=9.1u w=3.9u l=0.28u
X138 VDDD.t550 SAR_logic_dac_0.SAR_Asynchronous_top_neg_logic_0/SAR_Asynchronous_top_0/SAR_Asynchronous_Logic_integration_0/SAR_Asynchronous_Logic_10/D_reset_FF_1.Q.t9 a_73448_n1944# VDDD.t549 pfet_03v3 ad=2.535p pd=9.1u as=2.535p ps=9.1u w=3.9u l=0.28u
X139 a_n82580_10796# a_n89892_11028.t2 a_n79816_10796.t4 VDDD.t607 pfet_03v3 ad=2.535p pd=9.1u as=2.535p ps=9.1u w=3.9u l=0.28u
X140 a_10462_n71400.t0 a_3810_n71028.t2 SAR_logic_dac_0.VSSD SAR_logic_dac_0.VSSD nfet_03v3 ad=0.9516p pd=4.34u as=0.9516p ps=4.34u w=1.56u l=0.28u
X141 SAR_logic_dac_0.SAR_Asynchronous_top_neg_logic_0/SAR_Asynchronous_top_0/SAR_Asynchronous_Logic_integration_0/SAR_Asynchronous_Logic_6/D_reset_FF_1.Q.t4 a_68388_11030.t2 a_84240_12186.t2 SAR_logic_dac_0.VSSD nfet_03v3 ad=0.9516p pd=4.34u as=0.9516p ps=4.34u w=1.56u l=0.28u
X142 SAR_logic_dac_0.VSSD SAR_logic_dac_0.VSSD cap_mim_2f0_m4m5_noshield c_width=5u c_length=5u
X143 a_44064_n6052# a_42436_n7312.t5 VDDD.t597 VDDD.t596 pfet_03v3 ad=2.535p pd=9.1u as=2.535p ps=9.1u w=3.9u l=0.28u
X144 a_n56612_n7080.t1 clks.t4 VDDD.t263 VDDD.t262 pfet_03v3 ad=2.535p pd=9.1u as=2.535p ps=9.1u w=3.9u l=0.28u
X145 a_45568_7948# Reset.t8 a_44204_6688.t3 VDDD.t882 pfet_03v3 ad=2.535p pd=9.1u as=2.535p ps=9.1u w=3.9u l=0.28u
X146 a_n51028_n28246.t4 a_n52012_n28246.t4 a_n51028_n26986# VDDD.t469 pfet_03v3 ad=2.535p pd=9.1u as=2.535p ps=9.1u w=3.9u l=0.28u
X147 a_n55724_n3204.t1 Set.t11 SAR_logic_dac_0.VSSD SAR_logic_dac_0.VSSD nfet_03v3 ad=0.9516p pd=4.34u as=0.9516p ps=4.34u w=1.56u l=0.28u
X148 a_n16938_n39340.t9 a_20240_12186.t3 VDDD.t447 VDDD.t446 pfet_03v3 ad=2.535p pd=9.1u as=2.535p ps=9.1u w=3.9u l=1.1u
X149 a_n6028_n26986# Set.t12 VDDD.t95 VDDD.t94 pfet_03v3 ad=2.535p pd=9.1u as=2.535p ps=9.1u w=3.9u l=0.28u
X150 VDDD.t738 SAR_logic_dac_0.SAR_Asynchronous_top_neg_logic_0/SAR_Asynchronous_top_0/SAR_Logic_0.CK4.t6 a_34122_n2740.t1 VDDD.t737 pfet_03v3 ad=2.535p pd=9.1u as=2.535p ps=9.1u w=3.9u l=0.28u
X151 SAR_logic_dac_0.VSSD a_10728_6688.t5 a_12204_6688.t1 SAR_logic_dac_0.VSSD nfet_03v3 ad=0.9516p pd=4.34u as=0.9516p ps=4.34u w=1.56u l=0.28u
X152 a_n17888_n40380.t0 a_n18638_n40380.t3 SAR_logic_dac_0.VSSD SAR_logic_dac_0.VSSD nfet_03v3 ad=0.9516p pd=4.34u as=0.9516p ps=4.34u w=1.56u l=0.28u
X153 a_n25376_n28014# a_n29820_n28246.t5 SAR_logic_dac_0.VSSD SAR_logic_dac_0.VSSD nfet_03v3 ad=0.9516p pd=4.34u as=0.9516p ps=4.34u w=1.56u l=0.28u
X154 a_20924_n28014.t0 Valid.t3 VDDD.t400 VDDD.t399 pfet_03v3 ad=2.535p pd=9.1u as=2.535p ps=9.1u w=3.9u l=0.28u
X155 SAR_logic_dac_0.VSSD a_66122_n2740.t2 a_66122_n1986.t1 SAR_logic_dac_0.VSSD nfet_03v3 ad=0.9516p pd=4.34u as=0.9516p ps=4.34u w=1.56u l=0.28u
X156 a_n24076_n28014.t0 Valid.t4 VDDD.t402 VDDD.t401 pfet_03v3 ad=2.535p pd=9.1u as=2.535p ps=9.1u w=3.9u l=0.28u
X157 m4_n28600_n66758# a_34190_n3108.t4 cap_mim_2f0_m4m5_noshield c_width=5u c_length=5u
X158 a_73452_n7312.t0 a_71388_n7080.t2 SAR_logic_dac_0.SAR_Asynchronous_top_neg_logic_0/SAR_Asynchronous_top_0/SAR_Asynchronous_Logic_integration_0/SAR_Asynchronous_Logic_10/D_reset_FF_1.Q.t3 SAR_logic_dac_0.VSSD nfet_03v3 ad=0.9516p pd=4.34u as=0.9516p ps=4.34u w=1.56u l=0.28u
X159 a_n3766_n71400.t16 a_n46938_n39340.t10 cap_mim_2f0_m4m5_noshield c_width=5u c_length=5u
X160 a_n2888_n40380.t1 a_n3638_n40380.t2 VDDD.t567 VDDD.t566 pfet_03v3 ad=2.535p pd=9.1u as=2.535p ps=9.1u w=3.9u l=0.28u
X161 SAR_logic_dac_0.VSSD Set.t13 a_n47816_10796.t1 SAR_logic_dac_0.VSSD nfet_03v3 ad=0.9516p pd=4.34u as=0.9516p ps=4.34u w=1.56u l=0.28u
X162 a_9107_n62067.t16 a_n46752_n40600.t6 cap_mim_2f0_m4m5_noshield c_width=5u c_length=5u
X163 VDDD.t767 a_n61878_n1986.t2 a_n55792_n2836.t0 VDDD.t766 pfet_03v3 ad=2.535p pd=9.1u as=2.535p ps=9.1u w=3.9u l=0.28u
X164 SAR_logic_dac_0.VSSD a_n75944_n28246# a_n92570_11594.t2 SAR_logic_dac_0.VSSD nfet_03v3 ad=0.9516p pd=4.34u as=0.9516p ps=4.34u w=1.56u l=0.28u
X165 a_n23664_10796.t0 Set.t14 SAR_logic_dac_0.VSSD SAR_logic_dac_0.VSSD nfet_03v3 ad=0.9516p pd=4.34u as=0.9516p ps=4.34u w=1.56u l=0.28u
X166 a_52988_n28246.t0 a_50924_n28014.t3 a_22686_n2406.t1 SAR_logic_dac_0.VSSD nfet_03v3 ad=0.9516p pd=4.34u as=0.9516p ps=4.34u w=1.56u l=0.28u
X167 a_73452_n7312.t3 a_72208_n7080.t2 a_76064_n7312.t1 SAR_logic_dac_0.VSSD nfet_03v3 ad=0.9516p pd=4.34u as=0.9516p ps=4.34u w=1.56u l=0.28u
X168 a_n66028_n28246.t0 Set.t15 SAR_logic_dac_0.VSSD SAR_logic_dac_0.VSSD nfet_03v3 ad=0.9516p pd=4.34u as=0.9516p ps=4.34u w=1.56u l=0.28u
X169 a_73964_10796.t0 a_72336_10796.t5 SAR_logic_dac_0.VSSD SAR_logic_dac_0.VSSD nfet_03v3 ad=0.9516p pd=4.34u as=0.9516p ps=4.34u w=1.56u l=0.28u
X170 a_n24648_10796.t2 a_n25892_11028.t2 a_n22036_10796.t0 SAR_logic_dac_0.VSSD nfet_03v3 ad=0.9516p pd=4.34u as=0.9516p ps=4.34u w=1.56u l=0.28u
X171 a_n64400_n26986# a_n66028_n28246.t5 VDDD.t444 VDDD.t443 pfet_03v3 ad=2.535p pd=9.1u as=2.535p ps=9.1u w=3.9u l=0.28u
X172 a_74436_n7312.t4 Set.t16 SAR_logic_dac_0.VSSD SAR_logic_dac_0.VSSD nfet_03v3 ad=0.9516p pd=4.34u as=0.9516p ps=4.34u w=1.56u l=0.28u
X173 a_n23724_n3204.t0 a_n23792_n2836.t2 a_n23910_n1944# SAR_logic_dac_0.VSSD nfet_03v3 ad=0.9516p pd=4.34u as=0.9516p ps=4.34u w=1.56u l=0.28u
X174 a_n9314_n2406.t1 clks.t5 SAR_logic_dac_0.VSSD SAR_logic_dac_0.VSSD nfet_03v3 ad=0.9516p pd=4.34u as=0.9516p ps=4.34u w=1.56u l=0.28u
X175 SAR_logic_dac_0.SAR_Asynchronous_top_neg_logic_0/SAR_Asynchronous_top_0/SAR_Asynchronous_Logic_integration_0/SAR_Asynchronous_Logic_5/D_reset_FF_1.Q.t6 a_13420_10796# a_14544_12056# VDDD.t757 pfet_03v3 ad=2.535p pd=9.1u as=2.535p ps=9.1u w=3.9u l=0.28u
X176 a_9448_n1944# Set.t17 a_8276_n3204.t1 VDDD.t96 pfet_03v3 ad=2.535p pd=9.1u as=2.535p ps=9.1u w=3.9u l=0.28u
X177 a_75662_n40380# a_74578_n40600# SAR_logic_dac_0.VSSD SAR_logic_dac_0.VSSD nfet_03v3 ad=0.9516p pd=4.34u as=0.9516p ps=4.34u w=1.56u l=0.28u
X178 SAR_logic_dac_0.VSSD SAR_logic_dac_0.VSSD cap_mim_2f0_m4m5_noshield c_width=5u c_length=5u
X179 a_6176_6688.t1 Set.t18 SAR_logic_dac_0.VSSD SAR_logic_dac_0.VSSD nfet_03v3 ad=0.9516p pd=4.34u as=0.9516p ps=4.34u w=1.56u l=0.28u
X180 SAR_logic_dac_0.VSSD Set.t19 a_50284_n7312.t0 SAR_logic_dac_0.VSSD nfet_03v3 ad=0.9516p pd=4.34u as=0.9516p ps=4.34u w=1.56u l=0.28u
X181 a_49624_n28014# a_22686_n2406.t5 SAR_logic_dac_0.VSSD SAR_logic_dac_0.VSSD nfet_03v3 ad=0.9516p pd=4.34u as=0.9516p ps=4.34u w=1.56u l=0.28u
X182 a_n52912_n1944# a_n55910_n1944# SAR_logic_dac_0.SAR_Asynchronous_top_neg_logic_0/SAR_Asynchronous_top_0/SAR_Asynchronous_Logic_integration_0/SAR_Asynchronous_Logic_3/D_reset_FF_1.Q.t3 VDDD.t531 pfet_03v3 ad=2.535p pd=9.1u as=2.535p ps=9.1u w=3.9u l=0.28u
X183 SAR_logic_dac_0.SAR_Asynchronous_top_neg_logic_0/SAR_Asynchronous_top_0/SAR_Asynchronous_Logic_integration_0/SAR_Asynchronous_Logic_3/D_reset_FF_0.Q.t2 Reset.t9 SAR_logic_dac_0.VSSD SAR_logic_dac_0.VSSD nfet_03v3 ad=0.9516p pd=4.34u as=0.9516p ps=4.34u w=1.56u l=0.28u
X184 SAR_logic_dac_0.SAR_Asynchronous_top_neg_logic_0/SAR_Asynchronous_top_0/SAR_Asynchronous_Logic_integration_0/SAR_Asynchronous_Logic_5/D_reset_FF_0.Q.t1 a_5990_7948.t4 SAR_logic_dac_0.VSSD SAR_logic_dac_0.VSSD nfet_03v3 ad=0.9516p pd=4.34u as=0.9516p ps=4.34u w=1.56u l=0.28u
X185 m4_42400_n66758# a_13248_n40600.t15 cap_mim_2f0_m4m5_noshield c_width=5u c_length=5u
X186 VDDD.t510 a_n60602_n1950.t3 a_n61810_n3108.t0 VDDD.t509 pfet_03v3 ad=2.535p pd=9.1u as=2.535p ps=9.1u w=3.9u l=1.1u
X187 a_8972_n28246.t0 Set.t20 SAR_logic_dac_0.VSSD SAR_logic_dac_0.VSSD nfet_03v3 ad=0.9516p pd=4.34u as=0.9516p ps=4.34u w=1.56u l=0.28u
X188 a_n24648_10796.t0 a_n26712_11028.t2 a_n88834_12056.t11 SAR_logic_dac_0.VSSD nfet_03v3 ad=0.9516p pd=4.34u as=0.9516p ps=4.34u w=1.56u l=0.28u
X189 SAR_logic_dac_0.SAR_Asynchronous_top_neg_logic_0/SAR_Asynchronous_top_0/SAR_Asynchronous_Logic_integration_0/SAR_Asynchronous_Logic_10/D_reset_FF_0.nQ SAR_logic_dac_0.SAR_Asynchronous_top_neg_logic_0/SAR_Asynchronous_top_0/SAR_Asynchronous_Logic_integration_0/SAR_Asynchronous_Logic_10/D_reset_FF_0.Q.t3 VDDD.t583 VDDD.t582 pfet_03v3 ad=2.535p pd=9.1u as=2.535p ps=9.1u w=3.9u l=0.28u
X190 SAR_logic_dac_0.SAR_Asynchronous_top_neg_logic_0/SAR_Asynchronous_top_0/SAR_Asynchronous_Logic_integration_0/SAR_Asynchronous_Logic_0/D_reset_FF_0.Q.t0 a_n90010_7948.t4 SAR_logic_dac_0.VSSD SAR_logic_dac_0.VSSD nfet_03v3 ad=0.9516p pd=4.34u as=0.9516p ps=4.34u w=1.56u l=0.28u
X191 SAR_logic_dac_0.VSSD Set.t21 a_18284_n7312.t1 SAR_logic_dac_0.VSSD nfet_03v3 ad=0.9516p pd=4.34u as=0.9516p ps=4.34u w=1.56u l=0.28u
X192 a_n54036_12056# a_n55664_10796.t5 VDDD.t611 VDDD.t610 pfet_03v3 ad=2.535p pd=9.1u as=2.535p ps=9.1u w=3.9u l=0.28u
X193 a_n55376_n28014# a_n60570_11594.t6 VDDD.t63 VDDD.t62 pfet_03v3 ad=2.535p pd=9.1u as=2.535p ps=9.1u w=3.9u l=0.28u
X194 a_n60504_11030.t0 a_n60570_11594.t7 SAR_logic_dac_0.VSSD SAR_logic_dac_0.VSSD nfet_03v3 ad=0.9516p pd=4.34u as=0.9516p ps=4.34u w=1.56u l=0.28u
X195 a_n89824_6688.t3 Set.t22 SAR_logic_dac_0.VSSD SAR_logic_dac_0.VSSD nfet_03v3 ad=0.9516p pd=4.34u as=0.9516p ps=4.34u w=1.56u l=0.28u
X196 a_56362_n40380.t0 a_22686_n2406.t6 SAR_logic_dac_0.VSSD SAR_logic_dac_0.VSSD nfet_03v3 ad=0.9516p pd=4.34u as=0.9516p ps=4.34u w=1.56u l=0.28u
X197 a_15520_n7312.t3 a_8208_n7080.t3 a_18284_n7312.t3 VDDD.t492 pfet_03v3 ad=2.535p pd=9.1u as=2.535p ps=9.1u w=3.9u l=0.28u
X198 a_n49696_n3204.t3 Reset.t10 SAR_logic_dac_0.VSSD SAR_logic_dac_0.VSSD nfet_03v3 ad=0.9516p pd=4.34u as=0.9516p ps=4.34u w=1.56u l=0.28u
X199 VDDD.t946 a_n28602_n1950.t3 a_n29810_n3108.t6 VDDD.t945 pfet_03v3 ad=2.535p pd=9.1u as=2.535p ps=9.1u w=3.9u l=1.1u
X200 a_9964_12056# a_8336_10796.t5 VDDD.t968 VDDD.t967 pfet_03v3 ad=2.535p pd=9.1u as=2.535p ps=9.1u w=3.9u l=0.28u
X201 SAR_logic_dac_0.VSSD SAR_logic_dac_0.VSSD cap_mim_2f0_m4m5_noshield c_width=5u c_length=5u