* Extracted by KLayout with GF180MCU LVS runset on : 08/04/2024 19:49

.SUBCKT SAR_Asynchronous_Logic_integration clks CK_11 CK_10 CK_9 CK_8 CK_7 CK_6
+ VSSD Set VDDD Reset D_C_1 D_C_2 D_C_3 D_C_4 D_C_5 VCM Bit_0 Bit_1 Bit_2 Bit_3
+ Bit_4 CK_1 CK_2 CK_3 CK_4 CK_5 Bit_10 Bit_9 Bit_8 Bit_7 Bit_6 Bit_5 D_C_11
+ D_C_10 D_C_9 D_C_8 D_C_7 D_C_6
M$1 \$96 clks VDDD VDDD pfet_03v3 L=0.28U W=3.9U AS=2.535P AD=2.535P PS=9.1U
+ PD=9.1U
M$2 \$97 \$96 VDDD VDDD pfet_03v3 L=0.28U W=3.9U AS=2.535P AD=2.535P PS=9.1U
+ PD=9.1U
M$3 \$99 \$66 VDDD VDDD pfet_03v3 L=0.28U W=3.9U AS=2.535P AD=2.535P PS=9.1U
+ PD=9.1U
M$4 \$101 clks VDDD VDDD pfet_03v3 L=0.28U W=3.9U AS=2.535P AD=2.535P PS=9.1U
+ PD=9.1U
M$5 \$102 \$101 VDDD VDDD pfet_03v3 L=0.28U W=3.9U AS=2.535P AD=2.535P PS=9.1U
+ PD=9.1U
M$6 \$104 \$73 VDDD VDDD pfet_03v3 L=0.28U W=3.9U AS=2.535P AD=2.535P PS=9.1U
+ PD=9.1U
M$7 \$106 clks VDDD VDDD pfet_03v3 L=0.28U W=3.9U AS=2.535P AD=2.535P PS=9.1U
+ PD=9.1U
M$8 \$107 \$106 VDDD VDDD pfet_03v3 L=0.28U W=3.9U AS=2.535P AD=2.535P PS=9.1U
+ PD=9.1U
M$9 \$109 \$80 VDDD VDDD pfet_03v3 L=0.28U W=3.9U AS=2.535P AD=2.535P PS=9.1U
+ PD=9.1U
M$10 \$111 clks VDDD VDDD pfet_03v3 L=0.28U W=3.9U AS=2.535P AD=2.535P PS=9.1U
+ PD=9.1U
M$11 \$112 \$111 VDDD VDDD pfet_03v3 L=0.28U W=3.9U AS=2.535P AD=2.535P PS=9.1U
+ PD=9.1U
M$12 \$115 \$87 VDDD VDDD pfet_03v3 L=0.28U W=3.9U AS=2.535P AD=2.535P PS=9.1U
+ PD=9.1U
M$13 \$117 clks VDDD VDDD pfet_03v3 L=0.28U W=3.9U AS=2.535P AD=2.535P PS=9.1U
+ PD=9.1U
M$14 \$118 \$117 VDDD VDDD pfet_03v3 L=0.28U W=3.9U AS=2.535P AD=2.535P PS=9.1U
+ PD=9.1U
M$15 \$121 \$92 VDDD VDDD pfet_03v3 L=0.28U W=3.9U AS=2.535P AD=2.535P PS=9.1U
+ PD=9.1U
M$16 \$62 \$269 \$98 VDDD pfet_03v3 L=0.28U W=3.9U AS=2.535P AD=2.535P PS=9.1U
+ PD=9.1U
M$17 \$63 \$97 \$98 VDDD pfet_03v3 L=0.28U W=3.9U AS=2.535P AD=2.535P PS=9.1U
+ PD=9.1U
M$18 \$479 Set VDDD VDDD pfet_03v3 L=0.28U W=3.9U AS=2.535P AD=2.535P PS=9.1U
+ PD=9.1U
M$19 \$64 \$63 \$479 VDDD pfet_03v3 L=0.28U W=3.9U AS=2.535P AD=2.535P PS=9.1U
+ PD=9.1U
M$20 \$480 \$64 VDDD VDDD pfet_03v3 L=0.28U W=3.9U AS=2.535P AD=2.535P PS=9.1U
+ PD=9.1U
M$21 \$65 Reset \$480 VDDD pfet_03v3 L=0.28U W=3.9U AS=2.535P AD=2.535P PS=9.1U
+ PD=9.1U
M$22 \$63 \$96 \$65 VDDD pfet_03v3 L=0.28U W=3.9U AS=2.535P AD=2.535P PS=9.1U
+ PD=9.1U
M$23 \$68 \$96 \$64 VDDD pfet_03v3 L=0.28U W=3.9U AS=2.535P AD=2.535P PS=9.1U
+ PD=9.1U
M$24 \$481 Reset VDDD VDDD pfet_03v3 L=0.28U W=3.9U AS=2.535P AD=2.535P PS=9.1U
+ PD=9.1U
M$25 \$66 \$68 \$481 VDDD pfet_03v3 L=0.28U W=3.9U AS=2.535P AD=2.535P PS=9.1U
+ PD=9.1U
M$26 \$482 \$66 VDDD VDDD pfet_03v3 L=0.28U W=3.9U AS=2.535P AD=2.535P PS=9.1U
+ PD=9.1U
M$27 \$67 Set \$482 VDDD pfet_03v3 L=0.28U W=3.9U AS=2.535P AD=2.535P PS=9.1U
+ PD=9.1U
M$28 \$68 \$97 \$67 VDDD pfet_03v3 L=0.28U W=3.9U AS=2.535P AD=2.535P PS=9.1U
+ PD=9.1U
M$29 \$69 \$283 \$103 VDDD pfet_03v3 L=0.28U W=3.9U AS=2.535P AD=2.535P PS=9.1U
+ PD=9.1U
M$30 \$70 \$102 \$103 VDDD pfet_03v3 L=0.28U W=3.9U AS=2.535P AD=2.535P PS=9.1U
+ PD=9.1U
M$31 \$483 Set VDDD VDDD pfet_03v3 L=0.28U W=3.9U AS=2.535P AD=2.535P PS=9.1U
+ PD=9.1U
M$32 \$71 \$70 \$483 VDDD pfet_03v3 L=0.28U W=3.9U AS=2.535P AD=2.535P PS=9.1U
+ PD=9.1U
M$33 \$484 \$71 VDDD VDDD pfet_03v3 L=0.28U W=3.9U AS=2.535P AD=2.535P PS=9.1U
+ PD=9.1U
M$34 \$72 Reset \$484 VDDD pfet_03v3 L=0.28U W=3.9U AS=2.535P AD=2.535P PS=9.1U
+ PD=9.1U
M$35 \$70 \$101 \$72 VDDD pfet_03v3 L=0.28U W=3.9U AS=2.535P AD=2.535P PS=9.1U
+ PD=9.1U
M$36 \$75 \$101 \$71 VDDD pfet_03v3 L=0.28U W=3.9U AS=2.535P AD=2.535P PS=9.1U
+ PD=9.1U
M$37 \$485 Reset VDDD VDDD pfet_03v3 L=0.28U W=3.9U AS=2.535P AD=2.535P PS=9.1U
+ PD=9.1U
M$38 \$73 \$75 \$485 VDDD pfet_03v3 L=0.28U W=3.9U AS=2.535P AD=2.535P PS=9.1U
+ PD=9.1U
M$39 \$486 \$73 VDDD VDDD pfet_03v3 L=0.28U W=3.9U AS=2.535P AD=2.535P PS=9.1U
+ PD=9.1U
M$40 \$74 Set \$486 VDDD pfet_03v3 L=0.28U W=3.9U AS=2.535P AD=2.535P PS=9.1U
+ PD=9.1U
M$41 \$75 \$102 \$74 VDDD pfet_03v3 L=0.28U W=3.9U AS=2.535P AD=2.535P PS=9.1U
+ PD=9.1U
M$42 \$76 \$296 \$108 VDDD pfet_03v3 L=0.28U W=3.9U AS=2.535P AD=2.535P PS=9.1U
+ PD=9.1U
M$43 \$77 \$107 \$108 VDDD pfet_03v3 L=0.28U W=3.9U AS=2.535P AD=2.535P PS=9.1U
+ PD=9.1U
M$44 \$487 Set VDDD VDDD pfet_03v3 L=0.28U W=3.9U AS=2.535P AD=2.535P PS=9.1U
+ PD=9.1U
M$45 \$78 \$77 \$487 VDDD pfet_03v3 L=0.28U W=3.9U AS=2.535P AD=2.535P PS=9.1U
+ PD=9.1U
M$46 \$488 \$78 VDDD VDDD pfet_03v3 L=0.28U W=3.9U AS=2.535P AD=2.535P PS=9.1U
+ PD=9.1U
M$47 \$79 Reset \$488 VDDD pfet_03v3 L=0.28U W=3.9U AS=2.535P AD=2.535P PS=9.1U
+ PD=9.1U
M$48 \$77 \$106 \$79 VDDD pfet_03v3 L=0.28U W=3.9U AS=2.535P AD=2.535P PS=9.1U
+ PD=9.1U
M$49 \$82 \$106 \$78 VDDD pfet_03v3 L=0.28U W=3.9U AS=2.535P AD=2.535P PS=9.1U
+ PD=9.1U
M$50 \$489 Reset VDDD VDDD pfet_03v3 L=0.28U W=3.9U AS=2.535P AD=2.535P PS=9.1U
+ PD=9.1U
M$51 \$80 \$82 \$489 VDDD pfet_03v3 L=0.28U W=3.9U AS=2.535P AD=2.535P PS=9.1U
+ PD=9.1U
M$52 \$490 \$80 VDDD VDDD pfet_03v3 L=0.28U W=3.9U AS=2.535P AD=2.535P PS=9.1U
+ PD=9.1U
M$53 \$81 Set \$490 VDDD pfet_03v3 L=0.28U W=3.9U AS=2.535P AD=2.535P PS=9.1U
+ PD=9.1U
M$54 \$82 \$107 \$81 VDDD pfet_03v3 L=0.28U W=3.9U AS=2.535P AD=2.535P PS=9.1U
+ PD=9.1U
M$55 \$83 \$309 \$113 VDDD pfet_03v3 L=0.28U W=3.9U AS=2.535P AD=2.535P PS=9.1U
+ PD=9.1U
M$56 \$84 \$112 \$113 VDDD pfet_03v3 L=0.28U W=3.9U AS=2.535P AD=2.535P PS=9.1U
+ PD=9.1U
M$57 \$491 Set VDDD VDDD pfet_03v3 L=0.28U W=3.9U AS=2.535P AD=2.535P PS=9.1U
+ PD=9.1U
M$58 \$85 \$84 \$491 VDDD pfet_03v3 L=0.28U W=3.9U AS=2.535P AD=2.535P PS=9.1U
+ PD=9.1U
M$59 \$492 \$85 VDDD VDDD pfet_03v3 L=0.28U W=3.9U AS=2.535P AD=2.535P PS=9.1U
+ PD=9.1U
M$60 \$86 Reset \$492 VDDD pfet_03v3 L=0.28U W=3.9U AS=2.535P AD=2.535P PS=9.1U
+ PD=9.1U
M$61 \$84 \$111 \$86 VDDD pfet_03v3 L=0.28U W=3.9U AS=2.535P AD=2.535P PS=9.1U
+ PD=9.1U
M$62 \$114 \$111 \$85 VDDD pfet_03v3 L=0.28U W=3.9U AS=2.535P AD=2.535P PS=9.1U
+ PD=9.1U
M$63 \$493 Reset VDDD VDDD pfet_03v3 L=0.28U W=3.9U AS=2.535P AD=2.535P PS=9.1U
+ PD=9.1U
M$64 \$87 \$114 \$493 VDDD pfet_03v3 L=0.28U W=3.9U AS=2.535P AD=2.535P PS=9.1U
+ PD=9.1U
M$65 \$494 \$87 VDDD VDDD pfet_03v3 L=0.28U W=3.9U AS=2.535P AD=2.535P PS=9.1U
+ PD=9.1U
M$66 \$88 Set \$494 VDDD pfet_03v3 L=0.28U W=3.9U AS=2.535P AD=2.535P PS=9.1U
+ PD=9.1U
M$67 \$114 \$112 \$88 VDDD pfet_03v3 L=0.28U W=3.9U AS=2.535P AD=2.535P PS=9.1U
+ PD=9.1U
M$68 \$89 \$322 \$119 VDDD pfet_03v3 L=0.28U W=3.9U AS=2.535P AD=2.535P PS=9.1U
+ PD=9.1U
M$69 \$120 \$118 \$119 VDDD pfet_03v3 L=0.28U W=3.9U AS=2.535P AD=2.535P
+ PS=9.1U PD=9.1U
M$70 \$495 Set VDDD VDDD pfet_03v3 L=0.28U W=3.9U AS=2.535P AD=2.535P PS=9.1U
+ PD=9.1U
M$71 \$90 \$120 \$495 VDDD pfet_03v3 L=0.28U W=3.9U AS=2.535P AD=2.535P PS=9.1U
+ PD=9.1U
M$72 \$496 \$90 VDDD VDDD pfet_03v3 L=0.28U W=3.9U AS=2.535P AD=2.535P PS=9.1U
+ PD=9.1U
M$73 \$91 Reset \$496 VDDD pfet_03v3 L=0.28U W=3.9U AS=2.535P AD=2.535P PS=9.1U
+ PD=9.1U
M$74 \$120 \$117 \$91 VDDD pfet_03v3 L=0.28U W=3.9U AS=2.535P AD=2.535P PS=9.1U
+ PD=9.1U
M$75 \$94 \$117 \$90 VDDD pfet_03v3 L=0.28U W=3.9U AS=2.535P AD=2.535P PS=9.1U
+ PD=9.1U
M$76 \$497 Reset VDDD VDDD pfet_03v3 L=0.28U W=3.9U AS=2.535P AD=2.535P PS=9.1U
+ PD=9.1U
M$77 \$92 \$94 \$497 VDDD pfet_03v3 L=0.28U W=3.9U AS=2.535P AD=2.535P PS=9.1U
+ PD=9.1U
M$78 \$498 \$92 VDDD VDDD pfet_03v3 L=0.28U W=3.9U AS=2.535P AD=2.535P PS=9.1U
+ PD=9.1U
M$79 \$93 Set \$498 VDDD pfet_03v3 L=0.28U W=3.9U AS=2.535P AD=2.535P PS=9.1U
+ PD=9.1U
M$80 \$94 \$118 \$93 VDDD pfet_03v3 L=0.28U W=3.9U AS=2.535P AD=2.535P PS=9.1U
+ PD=9.1U
M$81 VDDD \$98 \$907 VDDD pfet_03v3 L=0.28U W=3.9U AS=2.535P AD=2.535P PS=9.1U
+ PD=9.1U
M$82 \$884 \$1026 \$839 VDDD pfet_03v3 L=0.28U W=3.9U AS=2.535P AD=2.535P
+ PS=9.1U PD=9.1U
M$83 \$1430 Set \$884 VDDD pfet_03v3 L=0.28U W=3.9U AS=2.535P AD=2.535P PS=9.1U
+ PD=9.1U
M$84 VDDD \$98 \$1430 VDDD pfet_03v3 L=0.28U W=3.9U AS=2.535P AD=2.535P PS=9.1U
+ PD=9.1U
M$85 \$1431 \$839 \$98 VDDD pfet_03v3 L=0.28U W=3.9U AS=2.535P AD=2.535P
+ PS=9.1U PD=9.1U
M$86 VDDD Reset \$1431 VDDD pfet_03v3 L=0.28U W=3.9U AS=2.535P AD=2.535P
+ PS=9.1U PD=9.1U
M$87 \$885 \$1025 \$839 VDDD pfet_03v3 L=0.28U W=3.9U AS=2.535P AD=2.535P
+ PS=9.1U PD=9.1U
M$88 \$886 \$1025 \$874 VDDD pfet_03v3 L=0.28U W=3.9U AS=2.535P AD=2.535P
+ PS=9.1U PD=9.1U
M$89 \$1432 Reset \$886 VDDD pfet_03v3 L=0.28U W=3.9U AS=2.535P AD=2.535P
+ PS=9.1U PD=9.1U
M$90 VDDD \$885 \$1432 VDDD pfet_03v3 L=0.28U W=3.9U AS=2.535P AD=2.535P
+ PS=9.1U PD=9.1U
M$91 \$1433 \$874 \$885 VDDD pfet_03v3 L=0.28U W=3.9U AS=2.535P AD=2.535P
+ PS=9.1U PD=9.1U
M$92 VDDD Set \$1433 VDDD pfet_03v3 L=0.28U W=3.9U AS=2.535P AD=2.535P PS=9.1U
+ PD=9.1U
M$93 D_C_1 \$1026 \$874 VDDD pfet_03v3 L=0.28U W=3.9U AS=2.535P AD=2.535P
+ PS=9.1U PD=9.1U
M$94 VDDD \$1025 \$1026 VDDD pfet_03v3 L=0.28U W=3.9U AS=2.535P AD=2.535P
+ PS=9.1U PD=9.1U
M$95 VDDD \$95 \$1025 VDDD pfet_03v3 L=0.28U W=3.9U AS=2.535P AD=2.535P PS=9.1U
+ PD=9.1U
M$96 VDDD \$269 \$95 VDDD pfet_03v3 L=0.28U W=3.9U AS=2.535P AD=2.535P PS=9.1U
+ PD=9.1U
M$97 VDDD CK_1 \$269 VDDD pfet_03v3 L=0.28U W=3.9U AS=2.535P AD=2.535P PS=9.1U
+ PD=9.1U
M$98 VDDD \$103 \$910 VDDD pfet_03v3 L=0.28U W=3.9U AS=2.535P AD=2.535P PS=9.1U
+ PD=9.1U
M$99 \$888 \$1028 \$840 VDDD pfet_03v3 L=0.28U W=3.9U AS=2.535P AD=2.535P
+ PS=9.1U PD=9.1U
M$100 \$1434 Set \$888 VDDD pfet_03v3 L=0.28U W=3.9U AS=2.535P AD=2.535P
+ PS=9.1U PD=9.1U
M$101 VDDD \$103 \$1434 VDDD pfet_03v3 L=0.28U W=3.9U AS=2.535P AD=2.535P
+ PS=9.1U PD=9.1U
M$102 \$1435 \$840 \$103 VDDD pfet_03v3 L=0.28U W=3.9U AS=2.535P AD=2.535P
+ PS=9.1U PD=9.1U
M$103 VDDD Reset \$1435 VDDD pfet_03v3 L=0.28U W=3.9U AS=2.535P AD=2.535P
+ PS=9.1U PD=9.1U
M$104 \$889 \$1027 \$840 VDDD pfet_03v3 L=0.28U W=3.9U AS=2.535P AD=2.535P
+ PS=9.1U PD=9.1U
M$105 \$890 \$1027 \$875 VDDD pfet_03v3 L=0.28U W=3.9U AS=2.535P AD=2.535P
+ PS=9.1U PD=9.1U
M$106 \$1436 Reset \$890 VDDD pfet_03v3 L=0.28U W=3.9U AS=2.535P AD=2.535P
+ PS=9.1U PD=9.1U
M$107 VDDD \$889 \$1436 VDDD pfet_03v3 L=0.28U W=3.9U AS=2.535P AD=2.535P
+ PS=9.1U PD=9.1U
M$108 \$1437 \$875 \$889 VDDD pfet_03v3 L=0.28U W=3.9U AS=2.535P AD=2.535P
+ PS=9.1U PD=9.1U
M$109 VDDD Set \$1437 VDDD pfet_03v3 L=0.28U W=3.9U AS=2.535P AD=2.535P PS=9.1U
+ PD=9.1U
M$110 D_C_2 \$1028 \$875 VDDD pfet_03v3 L=0.28U W=3.9U AS=2.535P AD=2.535P
+ PS=9.1U PD=9.1U
M$111 VDDD \$1027 \$1028 VDDD pfet_03v3 L=0.28U W=3.9U AS=2.535P AD=2.535P
+ PS=9.1U PD=9.1U
M$112 VDDD \$100 \$1027 VDDD pfet_03v3 L=0.28U W=3.9U AS=2.535P AD=2.535P
+ PS=9.1U PD=9.1U
M$113 VDDD \$283 \$100 VDDD pfet_03v3 L=0.28U W=3.9U AS=2.535P AD=2.535P
+ PS=9.1U PD=9.1U
M$114 VDDD CK_2 \$283 VDDD pfet_03v3 L=0.28U W=3.9U AS=2.535P AD=2.535P PS=9.1U
+ PD=9.1U
M$115 VDDD \$108 \$913 VDDD pfet_03v3 L=0.28U W=3.9U AS=2.535P AD=2.535P
+ PS=9.1U PD=9.1U
M$116 \$892 \$1030 \$841 VDDD pfet_03v3 L=0.28U W=3.9U AS=2.535P AD=2.535P
+ PS=9.1U PD=9.1U
M$117 \$1438 Set \$892 VDDD pfet_03v3 L=0.28U W=3.9U AS=2.535P AD=2.535P
+ PS=9.1U PD=9.1U
M$118 VDDD \$108 \$1438 VDDD pfet_03v3 L=0.28U W=3.9U AS=2.535P AD=2.535P
+ PS=9.1U PD=9.1U
M$119 \$1439 \$841 \$108 VDDD pfet_03v3 L=0.28U W=3.9U AS=2.535P AD=2.535P
+ PS=9.1U PD=9.1U
M$120 VDDD Reset \$1439 VDDD pfet_03v3 L=0.28U W=3.9U AS=2.535P AD=2.535P
+ PS=9.1U PD=9.1U
M$121 \$893 \$1029 \$841 VDDD pfet_03v3 L=0.28U W=3.9U AS=2.535P AD=2.535P
+ PS=9.1U PD=9.1U
M$122 \$894 \$1029 \$876 VDDD pfet_03v3 L=0.28U W=3.9U AS=2.535P AD=2.535P
+ PS=9.1U PD=9.1U
M$123 \$1440 Reset \$894 VDDD pfet_03v3 L=0.28U W=3.9U AS=2.535P AD=2.535P
+ PS=9.1U PD=9.1U
M$124 VDDD \$893 \$1440 VDDD pfet_03v3 L=0.28U W=3.9U AS=2.535P AD=2.535P
+ PS=9.1U PD=9.1U
M$125 \$1441 \$876 \$893 VDDD pfet_03v3 L=0.28U W=3.9U AS=2.535P AD=2.535P
+ PS=9.1U PD=9.1U
M$126 VDDD Set \$1441 VDDD pfet_03v3 L=0.28U W=3.9U AS=2.535P AD=2.535P PS=9.1U
+ PD=9.1U
M$127 D_C_3 \$1030 \$876 VDDD pfet_03v3 L=0.28U W=3.9U AS=2.535P AD=2.535P
+ PS=9.1U PD=9.1U
M$128 VDDD \$1029 \$1030 VDDD pfet_03v3 L=0.28U W=3.9U AS=2.535P AD=2.535P
+ PS=9.1U PD=9.1U
M$129 VDDD \$105 \$1029 VDDD pfet_03v3 L=0.28U W=3.9U AS=2.535P AD=2.535P
+ PS=9.1U PD=9.1U
M$130 VDDD \$296 \$105 VDDD pfet_03v3 L=0.28U W=3.9U AS=2.535P AD=2.535P
+ PS=9.1U PD=9.1U
M$131 VDDD CK_3 \$296 VDDD pfet_03v3 L=0.28U W=3.9U AS=2.535P AD=2.535P PS=9.1U
+ PD=9.1U
M$132 VDDD \$113 \$916 VDDD pfet_03v3 L=0.28U W=3.9U AS=2.535P AD=2.535P
+ PS=9.1U PD=9.1U
M$133 \$896 \$1032 \$842 VDDD pfet_03v3 L=0.28U W=3.9U AS=2.535P AD=2.535P
+ PS=9.1U PD=9.1U
M$134 \$1442 Set \$896 VDDD pfet_03v3 L=0.28U W=3.9U AS=2.535P AD=2.535P
+ PS=9.1U PD=9.1U
M$135 VDDD \$113 \$1442 VDDD pfet_03v3 L=0.28U W=3.9U AS=2.535P AD=2.535P
+ PS=9.1U PD=9.1U
M$136 \$1443 \$842 \$113 VDDD pfet_03v3 L=0.28U W=3.9U AS=2.535P AD=2.535P
+ PS=9.1U PD=9.1U
M$137 VDDD Reset \$1443 VDDD pfet_03v3 L=0.28U W=3.9U AS=2.535P AD=2.535P
+ PS=9.1U PD=9.1U
M$138 \$897 \$1031 \$842 VDDD pfet_03v3 L=0.28U W=3.9U AS=2.535P AD=2.535P
+ PS=9.1U PD=9.1U
M$139 \$898 \$1031 \$877 VDDD pfet_03v3 L=0.28U W=3.9U AS=2.535P AD=2.535P
+ PS=9.1U PD=9.1U
M$140 \$1444 Reset \$898 VDDD pfet_03v3 L=0.28U W=3.9U AS=2.535P AD=2.535P
+ PS=9.1U PD=9.1U
M$141 VDDD \$897 \$1444 VDDD pfet_03v3 L=0.28U W=3.9U AS=2.535P AD=2.535P
+ PS=9.1U PD=9.1U
M$142 \$1445 \$877 \$897 VDDD pfet_03v3 L=0.28U W=3.9U AS=2.535P AD=2.535P
+ PS=9.1U PD=9.1U
M$143 VDDD Set \$1445 VDDD pfet_03v3 L=0.28U W=3.9U AS=2.535P AD=2.535P PS=9.1U
+ PD=9.1U
M$144 D_C_4 \$1032 \$877 VDDD pfet_03v3 L=0.28U W=3.9U AS=2.535P AD=2.535P
+ PS=9.1U PD=9.1U
M$145 VDDD \$1031 \$1032 VDDD pfet_03v3 L=0.28U W=3.9U AS=2.535P AD=2.535P
+ PS=9.1U PD=9.1U
M$146 VDDD \$110 \$1031 VDDD pfet_03v3 L=0.28U W=3.9U AS=2.535P AD=2.535P
+ PS=9.1U PD=9.1U
M$147 VDDD \$309 \$110 VDDD pfet_03v3 L=0.28U W=3.9U AS=2.535P AD=2.535P
+ PS=9.1U PD=9.1U
M$148 VDDD CK_4 \$309 VDDD pfet_03v3 L=0.28U W=3.9U AS=2.535P AD=2.535P PS=9.1U
+ PD=9.1U
M$149 VDDD \$119 \$919 VDDD pfet_03v3 L=0.28U W=3.9U AS=2.535P AD=2.535P
+ PS=9.1U PD=9.1U
M$150 \$900 \$1034 \$843 VDDD pfet_03v3 L=0.28U W=3.9U AS=2.535P AD=2.535P
+ PS=9.1U PD=9.1U
M$151 \$1446 Set \$900 VDDD pfet_03v3 L=0.28U W=3.9U AS=2.535P AD=2.535P
+ PS=9.1U PD=9.1U
M$152 VDDD \$119 \$1446 VDDD pfet_03v3 L=0.28U W=3.9U AS=2.535P AD=2.535P
+ PS=9.1U PD=9.1U
M$153 \$1447 \$843 \$119 VDDD pfet_03v3 L=0.28U W=3.9U AS=2.535P AD=2.535P
+ PS=9.1U PD=9.1U
M$154 VDDD Reset \$1447 VDDD pfet_03v3 L=0.28U W=3.9U AS=2.535P AD=2.535P
+ PS=9.1U PD=9.1U
M$155 \$901 \$1033 \$843 VDDD pfet_03v3 L=0.28U W=3.9U AS=2.535P AD=2.535P
+ PS=9.1U PD=9.1U
M$156 \$902 \$1033 \$878 VDDD pfet_03v3 L=0.28U W=3.9U AS=2.535P AD=2.535P
+ PS=9.1U PD=9.1U
M$157 \$1448 Reset \$902 VDDD pfet_03v3 L=0.28U W=3.9U AS=2.535P AD=2.535P
+ PS=9.1U PD=9.1U
M$158 VDDD \$901 \$1448 VDDD pfet_03v3 L=0.28U W=3.9U AS=2.535P AD=2.535P
+ PS=9.1U PD=9.1U
M$159 \$1449 \$878 \$901 VDDD pfet_03v3 L=0.28U W=3.9U AS=2.535P AD=2.535P
+ PS=9.1U PD=9.1U
M$160 VDDD Set \$1449 VDDD pfet_03v3 L=0.28U W=3.9U AS=2.535P AD=2.535P PS=9.1U
+ PD=9.1U
M$161 D_C_5 \$1034 \$878 VDDD pfet_03v3 L=0.28U W=3.9U AS=2.535P AD=2.535P
+ PS=9.1U PD=9.1U
M$162 VDDD \$1033 \$1034 VDDD pfet_03v3 L=0.28U W=3.9U AS=2.535P AD=2.535P
+ PS=9.1U PD=9.1U
M$163 VDDD \$116 \$1033 VDDD pfet_03v3 L=0.28U W=3.9U AS=2.535P AD=2.535P
+ PS=9.1U PD=9.1U
M$164 VDDD \$322 \$116 VDDD pfet_03v3 L=0.28U W=3.9U AS=2.535P AD=2.535P
+ PS=9.1U PD=9.1U
M$165 VDDD CK_5 \$322 VDDD pfet_03v3 L=0.28U W=3.9U AS=2.535P AD=2.535P PS=9.1U
+ PD=9.1U
M$166 VDDD \$2053 \$1874 VDDD pfet_03v3 L=0.28U W=3.9U AS=2.535P AD=2.535P
+ PS=9.1U PD=9.1U
M$167 \$1842 \$2086 \$1804 VDDD pfet_03v3 L=0.28U W=3.9U AS=2.535P AD=2.535P
+ PS=9.1U PD=9.1U
M$168 \$2334 Set \$1842 VDDD pfet_03v3 L=0.28U W=3.9U AS=2.535P AD=2.535P
+ PS=9.1U PD=9.1U
M$169 VDDD \$2053 \$2334 VDDD pfet_03v3 L=0.28U W=3.9U AS=2.535P AD=2.535P
+ PS=9.1U PD=9.1U
M$170 \$2335 \$1804 \$2053 VDDD pfet_03v3 L=0.28U W=3.9U AS=2.535P AD=2.535P
+ PS=9.1U PD=9.1U
M$171 VDDD Reset \$2335 VDDD pfet_03v3 L=0.28U W=3.9U AS=2.535P AD=2.535P
+ PS=9.1U PD=9.1U
M$172 \$1843 \$2052 \$1804 VDDD pfet_03v3 L=0.28U W=3.9U AS=2.535P AD=2.535P
+ PS=9.1U PD=9.1U
M$173 \$1875 \$2052 \$1835 VDDD pfet_03v3 L=0.28U W=3.9U AS=2.535P AD=2.535P
+ PS=9.1U PD=9.1U
M$174 \$2336 Reset \$1875 VDDD pfet_03v3 L=0.28U W=3.9U AS=2.535P AD=2.535P
+ PS=9.1U PD=9.1U
M$175 VDDD \$1843 \$2336 VDDD pfet_03v3 L=0.28U W=3.9U AS=2.535P AD=2.535P
+ PS=9.1U PD=9.1U
M$176 \$2337 \$1835 \$1843 VDDD pfet_03v3 L=0.28U W=3.9U AS=2.535P AD=2.535P
+ PS=9.1U PD=9.1U
M$177 VDDD Set \$2337 VDDD pfet_03v3 L=0.28U W=3.9U AS=2.535P AD=2.535P PS=9.1U
+ PD=9.1U
M$178 \$1844 \$2086 \$1835 VDDD pfet_03v3 L=0.28U W=3.9U AS=2.535P AD=2.535P
+ PS=9.1U PD=9.1U
M$179 VDDD \$2052 \$2086 VDDD pfet_03v3 L=0.28U W=3.9U AS=2.535P AD=2.535P
+ PS=9.1U PD=9.1U
M$180 VDDD clks \$2052 VDDD pfet_03v3 L=0.28U W=3.9U AS=2.535P AD=2.535P
+ PS=9.1U PD=9.1U
M$181 \$1844 \$1876 \$1845 VDDD pfet_03v3 L=0.28U W=3.9U AS=2.535P AD=2.535P
+ PS=9.1U PD=9.1U
M$182 Bit_0 \$95 VCM VDDD pfet_03v3 L=0.28U W=3.9U AS=2.535P AD=2.535P PS=9.1U
+ PD=9.1U
M$183 VDDD \$906 Bit_0 VDDD pfet_03v3 L=1.1U W=3.9U AS=2.535P AD=2.535P PS=9.1U
+ PD=9.1U
M$184 \$906 \$269 \$98 VDDD pfet_03v3 L=0.28U W=3.9U AS=2.535P AD=2.535P
+ PS=9.1U PD=9.1U
M$185 VDDD \$2055 \$1877 VDDD pfet_03v3 L=0.28U W=3.9U AS=2.535P AD=2.535P
+ PS=9.1U PD=9.1U
M$186 VDDD \$95 \$906 VDDD pfet_03v3 L=1.1U W=3.9U AS=2.535P AD=2.535P PS=9.1U
+ PD=9.1U
M$187 \$1847 \$2092 \$1805 VDDD pfet_03v3 L=0.28U W=3.9U AS=2.535P AD=2.535P
+ PS=9.1U PD=9.1U
M$188 \$2338 Set \$1847 VDDD pfet_03v3 L=0.28U W=3.9U AS=2.535P AD=2.535P
+ PS=9.1U PD=9.1U
M$189 VDDD \$2055 \$2338 VDDD pfet_03v3 L=0.28U W=3.9U AS=2.535P AD=2.535P
+ PS=9.1U PD=9.1U
M$190 \$2339 \$1805 \$2055 VDDD pfet_03v3 L=0.28U W=3.9U AS=2.535P AD=2.535P
+ PS=9.1U PD=9.1U
M$191 VDDD Reset \$2339 VDDD pfet_03v3 L=0.28U W=3.9U AS=2.535P AD=2.535P
+ PS=9.1U PD=9.1U
M$192 \$1848 \$2054 \$1805 VDDD pfet_03v3 L=0.28U W=3.9U AS=2.535P AD=2.535P
+ PS=9.1U PD=9.1U
M$193 \$1849 \$2054 \$1836 VDDD pfet_03v3 L=0.28U W=3.9U AS=2.535P AD=2.535P
+ PS=9.1U PD=9.1U
M$194 \$2340 Reset \$1849 VDDD pfet_03v3 L=0.28U W=3.9U AS=2.535P AD=2.535P
+ PS=9.1U PD=9.1U
M$195 VDDD \$1848 \$2340 VDDD pfet_03v3 L=0.28U W=3.9U AS=2.535P AD=2.535P
+ PS=9.1U PD=9.1U
M$196 \$2341 \$1836 \$1848 VDDD pfet_03v3 L=0.28U W=3.9U AS=2.535P AD=2.535P
+ PS=9.1U PD=9.1U
M$197 VDDD Set \$2341 VDDD pfet_03v3 L=0.28U W=3.9U AS=2.535P AD=2.535P PS=9.1U
+ PD=9.1U
M$198 \$1850 \$2092 \$1836 VDDD pfet_03v3 L=0.28U W=3.9U AS=2.535P AD=2.535P
+ PS=9.1U PD=9.1U
M$199 VDDD \$2054 \$2092 VDDD pfet_03v3 L=0.28U W=3.9U AS=2.535P AD=2.535P
+ PS=9.1U PD=9.1U
M$200 VDDD clks \$2054 VDDD pfet_03v3 L=0.28U W=3.9U AS=2.535P AD=2.535P
+ PS=9.1U PD=9.1U
M$201 \$1850 \$1878 \$1851 VDDD pfet_03v3 L=0.28U W=3.9U AS=2.535P AD=2.535P
+ PS=9.1U PD=9.1U
M$202 Bit_1 \$100 VCM VDDD pfet_03v3 L=0.28U W=3.9U AS=2.535P AD=2.535P PS=9.1U
+ PD=9.1U
M$203 VDDD \$909 Bit_1 VDDD pfet_03v3 L=1.1U W=3.9U AS=2.535P AD=2.535P PS=9.1U
+ PD=9.1U
M$204 \$909 \$283 \$103 VDDD pfet_03v3 L=0.28U W=3.9U AS=2.535P AD=2.535P
+ PS=9.1U PD=9.1U
M$205 VDDD \$2057 \$1879 VDDD pfet_03v3 L=0.28U W=3.9U AS=2.535P AD=2.535P
+ PS=9.1U PD=9.1U
M$206 VDDD \$100 \$909 VDDD pfet_03v3 L=1.1U W=3.9U AS=2.535P AD=2.535P PS=9.1U
+ PD=9.1U
M$207 \$1853 \$2114 \$1806 VDDD pfet_03v3 L=0.28U W=3.9U AS=2.535P AD=2.535P
+ PS=9.1U PD=9.1U
M$208 \$2342 Set \$1853 VDDD pfet_03v3 L=0.28U W=3.9U AS=2.535P AD=2.535P
+ PS=9.1U PD=9.1U
M$209 VDDD \$2057 \$2342 VDDD pfet_03v3 L=0.28U W=3.9U AS=2.535P AD=2.535P
+ PS=9.1U PD=9.1U
M$210 \$2343 \$1806 \$2057 VDDD pfet_03v3 L=0.28U W=3.9U AS=2.535P AD=2.535P
+ PS=9.1U PD=9.1U
M$211 VDDD Reset \$2343 VDDD pfet_03v3 L=0.28U W=3.9U AS=2.535P AD=2.535P
+ PS=9.1U PD=9.1U
M$212 \$1854 \$2056 \$1806 VDDD pfet_03v3 L=0.28U W=3.9U AS=2.535P AD=2.535P
+ PS=9.1U PD=9.1U
M$213 \$1855 \$2056 \$1837 VDDD pfet_03v3 L=0.28U W=3.9U AS=2.535P AD=2.535P
+ PS=9.1U PD=9.1U
M$214 \$2344 Reset \$1855 VDDD pfet_03v3 L=0.28U W=3.9U AS=2.535P AD=2.535P
+ PS=9.1U PD=9.1U
M$215 VDDD \$1854 \$2344 VDDD pfet_03v3 L=0.28U W=3.9U AS=2.535P AD=2.535P
+ PS=9.1U PD=9.1U
M$216 \$2345 \$1837 \$1854 VDDD pfet_03v3 L=0.28U W=3.9U AS=2.535P AD=2.535P
+ PS=9.1U PD=9.1U
M$217 VDDD Set \$2345 VDDD pfet_03v3 L=0.28U W=3.9U AS=2.535P AD=2.535P PS=9.1U
+ PD=9.1U
M$218 \$1856 \$2114 \$1837 VDDD pfet_03v3 L=0.28U W=3.9U AS=2.535P AD=2.535P
+ PS=9.1U PD=9.1U
M$219 VDDD \$2056 \$2114 VDDD pfet_03v3 L=0.28U W=3.9U AS=2.535P AD=2.535P
+ PS=9.1U PD=9.1U
M$220 VDDD clks \$2056 VDDD pfet_03v3 L=0.28U W=3.9U AS=2.535P AD=2.535P
+ PS=9.1U PD=9.1U
M$221 \$1856 \$1880 \$1857 VDDD pfet_03v3 L=0.28U W=3.9U AS=2.535P AD=2.535P
+ PS=9.1U PD=9.1U
M$222 Bit_2 \$105 VCM VDDD pfet_03v3 L=0.28U W=3.9U AS=2.535P AD=2.535P PS=9.1U
+ PD=9.1U
M$223 VDDD \$912 Bit_2 VDDD pfet_03v3 L=1.1U W=3.9U AS=2.535P AD=2.535P PS=9.1U
+ PD=9.1U
M$224 \$912 \$296 \$108 VDDD pfet_03v3 L=0.28U W=3.9U AS=2.535P AD=2.535P
+ PS=9.1U PD=9.1U
M$225 VDDD \$2059 \$1881 VDDD pfet_03v3 L=0.28U W=3.9U AS=2.535P AD=2.535P
+ PS=9.1U PD=9.1U
M$226 VDDD \$105 \$912 VDDD pfet_03v3 L=1.1U W=3.9U AS=2.535P AD=2.535P PS=9.1U
+ PD=9.1U
M$227 \$1859 \$2128 \$1807 VDDD pfet_03v3 L=0.28U W=3.9U AS=2.535P AD=2.535P
+ PS=9.1U PD=9.1U
M$228 \$2346 Set \$1859 VDDD pfet_03v3 L=0.28U W=3.9U AS=2.535P AD=2.535P
+ PS=9.1U PD=9.1U
M$229 VDDD \$2059 \$2346 VDDD pfet_03v3 L=0.28U W=3.9U AS=2.535P AD=2.535P
+ PS=9.1U PD=9.1U
M$230 \$2347 \$1807 \$2059 VDDD pfet_03v3 L=0.28U W=3.9U AS=2.535P AD=2.535P
+ PS=9.1U PD=9.1U
M$231 VDDD Reset \$2347 VDDD pfet_03v3 L=0.28U W=3.9U AS=2.535P AD=2.535P
+ PS=9.1U PD=9.1U
M$232 \$1860 \$2058 \$1807 VDDD pfet_03v3 L=0.28U W=3.9U AS=2.535P AD=2.535P
+ PS=9.1U PD=9.1U
M$233 \$1882 \$2058 \$1838 VDDD pfet_03v3 L=0.28U W=3.9U AS=2.535P AD=2.535P
+ PS=9.1U PD=9.1U
M$234 \$2348 Reset \$1882 VDDD pfet_03v3 L=0.28U W=3.9U AS=2.535P AD=2.535P
+ PS=9.1U PD=9.1U
M$235 VDDD \$1860 \$2348 VDDD pfet_03v3 L=0.28U W=3.9U AS=2.535P AD=2.535P
+ PS=9.1U PD=9.1U
M$236 \$2349 \$1838 \$1860 VDDD pfet_03v3 L=0.28U W=3.9U AS=2.535P AD=2.535P
+ PS=9.1U PD=9.1U
M$237 VDDD Set \$2349 VDDD pfet_03v3 L=0.28U W=3.9U AS=2.535P AD=2.535P PS=9.1U
+ PD=9.1U
M$238 \$1861 \$2128 \$1838 VDDD pfet_03v3 L=0.28U W=3.9U AS=2.535P AD=2.535P
+ PS=9.1U PD=9.1U
M$239 VDDD \$2058 \$2128 VDDD pfet_03v3 L=0.28U W=3.9U AS=2.535P AD=2.535P
+ PS=9.1U PD=9.1U
M$240 VDDD clks \$2058 VDDD pfet_03v3 L=0.28U W=3.9U AS=2.535P AD=2.535P
+ PS=9.1U PD=9.1U
M$241 \$1861 \$1883 \$1862 VDDD pfet_03v3 L=0.28U W=3.9U AS=2.535P AD=2.535P
+ PS=9.1U PD=9.1U
M$242 Bit_3 \$110 VCM VDDD pfet_03v3 L=0.28U W=3.9U AS=2.535P AD=2.535P PS=9.1U
+ PD=9.1U
M$243 VDDD \$915 Bit_3 VDDD pfet_03v3 L=1.1U W=3.9U AS=2.535P AD=2.535P PS=9.1U
+ PD=9.1U
M$244 \$915 \$309 \$113 VDDD pfet_03v3 L=0.28U W=3.9U AS=2.535P AD=2.535P
+ PS=9.1U PD=9.1U
M$245 VDDD \$2061 \$1884 VDDD pfet_03v3 L=0.28U W=3.9U AS=2.535P AD=2.535P
+ PS=9.1U PD=9.1U
M$246 VDDD \$110 \$915 VDDD pfet_03v3 L=1.1U W=3.9U AS=2.535P AD=2.535P PS=9.1U
+ PD=9.1U
M$247 \$1885 \$2142 \$1808 VDDD pfet_03v3 L=0.28U W=3.9U AS=2.535P AD=2.535P
+ PS=9.1U PD=9.1U
M$248 \$2350 Set \$1885 VDDD pfet_03v3 L=0.28U W=3.9U AS=2.535P AD=2.535P
+ PS=9.1U PD=9.1U
M$249 VDDD \$2061 \$2350 VDDD pfet_03v3 L=0.28U W=3.9U AS=2.535P AD=2.535P
+ PS=9.1U PD=9.1U
M$250 \$2351 \$1808 \$2061 VDDD pfet_03v3 L=0.28U W=3.9U AS=2.535P AD=2.535P
+ PS=9.1U PD=9.1U
M$251 VDDD Reset \$2351 VDDD pfet_03v3 L=0.28U W=3.9U AS=2.535P AD=2.535P
+ PS=9.1U PD=9.1U
M$252 \$1864 \$2060 \$1808 VDDD pfet_03v3 L=0.28U W=3.9U AS=2.535P AD=2.535P
+ PS=9.1U PD=9.1U
M$253 \$1865 \$2060 \$1839 VDDD pfet_03v3 L=0.28U W=3.9U AS=2.535P AD=2.535P
+ PS=9.1U PD=9.1U
M$254 \$2352 Reset \$1865 VDDD pfet_03v3 L=0.28U W=3.9U AS=2.535P AD=2.535P
+ PS=9.1U PD=9.1U
M$255 VDDD \$1864 \$2352 VDDD pfet_03v3 L=0.28U W=3.9U AS=2.535P AD=2.535P
+ PS=9.1U PD=9.1U
M$256 \$2353 \$1839 \$1864 VDDD pfet_03v3 L=0.28U W=3.9U AS=2.535P AD=2.535P
+ PS=9.1U PD=9.1U
M$257 VDDD Set \$2353 VDDD pfet_03v3 L=0.28U W=3.9U AS=2.535P AD=2.535P PS=9.1U
+ PD=9.1U
M$258 \$1866 \$2142 \$1839 VDDD pfet_03v3 L=0.28U W=3.9U AS=2.535P AD=2.535P
+ PS=9.1U PD=9.1U
M$259 VDDD \$2060 \$2142 VDDD pfet_03v3 L=0.28U W=3.9U AS=2.535P AD=2.535P
+ PS=9.1U PD=9.1U
M$260 VDDD clks \$2060 VDDD pfet_03v3 L=0.28U W=3.9U AS=2.535P AD=2.535P
+ PS=9.1U PD=9.1U
M$261 \$1866 \$1886 \$1867 VDDD pfet_03v3 L=0.28U W=3.9U AS=2.535P AD=2.535P
+ PS=9.1U PD=9.1U
M$262 Bit_4 \$116 VCM VDDD pfet_03v3 L=0.28U W=3.9U AS=2.535P AD=2.535P PS=9.1U
+ PD=9.1U
M$263 VDDD \$918 Bit_4 VDDD pfet_03v3 L=1.1U W=3.9U AS=2.535P AD=2.535P PS=9.1U
+ PD=9.1U
M$264 \$918 \$322 \$119 VDDD pfet_03v3 L=0.28U W=3.9U AS=2.535P AD=2.535P
+ PS=9.1U PD=9.1U
M$265 VDDD \$2063 \$1887 VDDD pfet_03v3 L=0.28U W=3.9U AS=2.535P AD=2.535P
+ PS=9.1U PD=9.1U
M$266 VDDD \$116 \$918 VDDD pfet_03v3 L=1.1U W=3.9U AS=2.535P AD=2.535P PS=9.1U
+ PD=9.1U
M$267 \$1869 \$2156 \$1809 VDDD pfet_03v3 L=0.28U W=3.9U AS=2.535P AD=2.535P
+ PS=9.1U PD=9.1U
M$268 \$2354 Set \$1869 VDDD pfet_03v3 L=0.28U W=3.9U AS=2.535P AD=2.535P
+ PS=9.1U PD=9.1U
M$269 VDDD \$2063 \$2354 VDDD pfet_03v3 L=0.28U W=3.9U AS=2.535P AD=2.535P
+ PS=9.1U PD=9.1U
M$270 \$2355 \$1809 \$2063 VDDD pfet_03v3 L=0.28U W=3.9U AS=2.535P AD=2.535P
+ PS=9.1U PD=9.1U
M$271 VDDD Reset \$2355 VDDD pfet_03v3 L=0.28U W=3.9U AS=2.535P AD=2.535P
+ PS=9.1U PD=9.1U
M$272 \$1870 \$2062 \$1809 VDDD pfet_03v3 L=0.28U W=3.9U AS=2.535P AD=2.535P
+ PS=9.1U PD=9.1U
M$273 \$1871 \$2062 \$1840 VDDD pfet_03v3 L=0.28U W=3.9U AS=2.535P AD=2.535P
+ PS=9.1U PD=9.1U
M$274 \$2356 Reset \$1871 VDDD pfet_03v3 L=0.28U W=3.9U AS=2.535P AD=2.535P
+ PS=9.1U PD=9.1U
M$275 VDDD \$1870 \$2356 VDDD pfet_03v3 L=0.28U W=3.9U AS=2.535P AD=2.535P
+ PS=9.1U PD=9.1U
M$276 \$2357 \$1840 \$1870 VDDD pfet_03v3 L=0.28U W=3.9U AS=2.535P AD=2.535P
+ PS=9.1U PD=9.1U
M$277 VDDD Set \$2357 VDDD pfet_03v3 L=0.28U W=3.9U AS=2.535P AD=2.535P PS=9.1U
+ PD=9.1U
M$278 \$1872 \$2156 \$1840 VDDD pfet_03v3 L=0.28U W=3.9U AS=2.535P AD=2.535P
+ PS=9.1U PD=9.1U
M$279 VDDD \$2062 \$2156 VDDD pfet_03v3 L=0.28U W=3.9U AS=2.535P AD=2.535P
+ PS=9.1U PD=9.1U
M$280 VDDD clks \$2062 VDDD pfet_03v3 L=0.28U W=3.9U AS=2.535P AD=2.535P
+ PS=9.1U PD=9.1U
M$281 \$1872 \$1888 \$1889 VDDD pfet_03v3 L=0.28U W=3.9U AS=2.535P AD=2.535P
+ PS=9.1U PD=9.1U
M$282 \$1876 CK_11 VDDD VDDD pfet_03v3 L=0.28U W=3.9U AS=2.535P AD=2.535P
+ PS=9.1U PD=9.1U
M$283 \$2087 \$1876 VDDD VDDD pfet_03v3 L=0.28U W=3.9U AS=2.535P AD=2.535P
+ PS=9.1U PD=9.1U
M$284 \$2862 \$2087 VDDD VDDD pfet_03v3 L=0.28U W=3.9U AS=2.535P AD=2.535P
+ PS=9.1U PD=9.1U
M$285 \$2863 \$2862 VDDD VDDD pfet_03v3 L=0.28U W=3.9U AS=2.535P AD=2.535P
+ PS=9.1U PD=9.1U
M$286 \$2815 \$2863 D_C_11 VDDD pfet_03v3 L=0.28U W=3.9U AS=2.535P AD=2.535P
+ PS=9.1U PD=9.1U
M$287 \$3474 Set VDDD VDDD pfet_03v3 L=0.28U W=3.9U AS=2.535P AD=2.535P PS=9.1U
+ PD=9.1U
M$288 \$2816 \$2815 \$3474 VDDD pfet_03v3 L=0.28U W=3.9U AS=2.535P AD=2.535P
+ PS=9.1U PD=9.1U
M$289 \$3475 \$2816 VDDD VDDD pfet_03v3 L=0.28U W=3.9U AS=2.535P AD=2.535P
+ PS=9.1U PD=9.1U
M$290 \$2817 Reset \$3475 VDDD pfet_03v3 L=0.28U W=3.9U AS=2.535P AD=2.535P
+ PS=9.1U PD=9.1U
M$291 \$2815 \$2862 \$2817 VDDD pfet_03v3 L=0.28U W=3.9U AS=2.535P AD=2.535P
+ PS=9.1U PD=9.1U
M$292 \$2819 \$2862 \$2816 VDDD pfet_03v3 L=0.28U W=3.9U AS=2.535P AD=2.535P
+ PS=9.1U PD=9.1U
M$293 \$3476 Reset VDDD VDDD pfet_03v3 L=0.28U W=3.9U AS=2.535P AD=2.535P
+ PS=9.1U PD=9.1U
M$294 \$1844 \$2819 \$3476 VDDD pfet_03v3 L=0.28U W=3.9U AS=2.535P AD=2.535P
+ PS=9.1U PD=9.1U
M$295 \$3477 \$1844 VDDD VDDD pfet_03v3 L=0.28U W=3.9U AS=2.535P AD=2.535P
+ PS=9.1U PD=9.1U
M$296 \$2818 Set \$3477 VDDD pfet_03v3 L=0.28U W=3.9U AS=2.535P AD=2.535P
+ PS=9.1U PD=9.1U
M$297 \$2819 \$2863 \$2818 VDDD pfet_03v3 L=0.28U W=3.9U AS=2.535P AD=2.535P
+ PS=9.1U PD=9.1U
M$298 \$2864 \$1844 VDDD VDDD pfet_03v3 L=0.28U W=3.9U AS=2.535P AD=2.535P
+ PS=9.1U PD=9.1U
M$299 \$1878 CK_10 VDDD VDDD pfet_03v3 L=0.28U W=3.9U AS=2.535P AD=2.535P
+ PS=9.1U PD=9.1U
M$300 \$2101 \$1878 VDDD VDDD pfet_03v3 L=0.28U W=3.9U AS=2.535P AD=2.535P
+ PS=9.1U PD=9.1U
M$301 \$2865 \$2101 VDDD VDDD pfet_03v3 L=0.28U W=3.9U AS=2.535P AD=2.535P
+ PS=9.1U PD=9.1U
M$302 \$2866 \$2865 VDDD VDDD pfet_03v3 L=0.28U W=3.9U AS=2.535P AD=2.535P
+ PS=9.1U PD=9.1U
M$303 \$2822 \$2866 D_C_10 VDDD pfet_03v3 L=0.28U W=3.9U AS=2.535P AD=2.535P
+ PS=9.1U PD=9.1U
M$304 \$3478 Set VDDD VDDD pfet_03v3 L=0.28U W=3.9U AS=2.535P AD=2.535P PS=9.1U
+ PD=9.1U
M$305 \$2823 \$2822 \$3478 VDDD pfet_03v3 L=0.28U W=3.9U AS=2.535P AD=2.535P
+ PS=9.1U PD=9.1U
M$306 \$3479 \$2823 VDDD VDDD pfet_03v3 L=0.28U W=3.9U AS=2.535P AD=2.535P
+ PS=9.1U PD=9.1U
M$307 \$2824 Reset \$3479 VDDD pfet_03v3 L=0.28U W=3.9U AS=2.535P AD=2.535P
+ PS=9.1U PD=9.1U
M$308 \$2822 \$2865 \$2824 VDDD pfet_03v3 L=0.28U W=3.9U AS=2.535P AD=2.535P
+ PS=9.1U PD=9.1U
M$309 \$2826 \$2865 \$2823 VDDD pfet_03v3 L=0.28U W=3.9U AS=2.535P AD=2.535P
+ PS=9.1U PD=9.1U
M$310 \$3480 Reset VDDD VDDD pfet_03v3 L=0.28U W=3.9U AS=2.535P AD=2.535P
+ PS=9.1U PD=9.1U
M$311 \$1850 \$2826 \$3480 VDDD pfet_03v3 L=0.28U W=3.9U AS=2.535P AD=2.535P
+ PS=9.1U PD=9.1U
M$312 \$3481 \$1850 VDDD VDDD pfet_03v3 L=0.28U W=3.9U AS=2.535P AD=2.535P
+ PS=9.1U PD=9.1U
M$313 \$2825 Set \$3481 VDDD pfet_03v3 L=0.28U W=3.9U AS=2.535P AD=2.535P
+ PS=9.1U PD=9.1U
M$314 \$2826 \$2866 \$2825 VDDD pfet_03v3 L=0.28U W=3.9U AS=2.535P AD=2.535P
+ PS=9.1U PD=9.1U
M$315 \$2867 \$1850 VDDD VDDD pfet_03v3 L=0.28U W=3.9U AS=2.535P AD=2.535P
+ PS=9.1U PD=9.1U
M$316 \$1880 CK_9 VDDD VDDD pfet_03v3 L=0.28U W=3.9U AS=2.535P AD=2.535P
+ PS=9.1U PD=9.1U
M$317 \$2115 \$1880 VDDD VDDD pfet_03v3 L=0.28U W=3.9U AS=2.535P AD=2.535P
+ PS=9.1U PD=9.1U
M$318 \$2868 \$2115 VDDD VDDD pfet_03v3 L=0.28U W=3.9U AS=2.535P AD=2.535P
+ PS=9.1U PD=9.1U
M$319 \$2869 \$2868 VDDD VDDD pfet_03v3 L=0.28U W=3.9U AS=2.535P AD=2.535P
+ PS=9.1U PD=9.1U
M$320 \$2829 \$2869 D_C_9 VDDD pfet_03v3 L=0.28U W=3.9U AS=2.535P AD=2.535P
+ PS=9.1U PD=9.1U
M$321 \$3482 Set VDDD VDDD pfet_03v3 L=0.28U W=3.9U AS=2.535P AD=2.535P PS=9.1U
+ PD=9.1U
M$322 \$2830 \$2829 \$3482 VDDD pfet_03v3 L=0.28U W=3.9U AS=2.535P AD=2.535P
+ PS=9.1U PD=9.1U
M$323 \$3483 \$2830 VDDD VDDD pfet_03v3 L=0.28U W=3.9U AS=2.535P AD=2.535P
+ PS=9.1U PD=9.1U