** sch_path: /home/lci-ufsc/Desktop/Bracolin/TIA_Filter/Filter_TOP.sch
.subckt Filter_TOP IN_POS IN_NEG VCM OUT VDD VSS I1N I1U IBNOUT IBPOUT
*.PININFO IN_POS:B IN_NEG:B I1N:B I1U:B VCM:B OUT:B IBNOUT:B IBPOUT:B VDD:B VSS:B
x1 I1N net1 net2 VCM OUT IBNOUT IBPOUT VDD VSS PR_CM_net
XC1 net1 OUT cap_mim_2f0_m4m5_noshield c_width=9.8e-6 c_length=9.8e-6 m=1
x2 net2 net1 OUT net3 VDD VSS FoldedCascode
XC2 net2 VCM cap_mim_2f0_m4m5_noshield c_width=9.8e-6 c_length=9.8e-6 m=1
XC3 IN_POS net2 cap_mim_2f0_m4m5_noshield c_width=100e-6 c_length=100e-6 m=1
XC4 IN_NEG net1 cap_mim_2f0_m4m5_noshield c_width=100e-6 c_length=100e-6 m=1
x3 I1U net3 VSS CM_iref
.ends

* expanding   symbol:  PR_CM_net.sym # of pins=9
** sym_path: /home/lci-ufsc/Desktop/Bracolin/TIA_Filter/PR_CM_net.sym
** sch_path: /home/lci-ufsc/Desktop/Bracolin/TIA_Filter/PR_CM_net.sch
.subckt PR_CM_net ISBCS A1 A2 B2 B1 CMOUTN CMOUTP VDD VSS
*.PININFO ISBCS:B A2:B B2:B A1:B B1:B CMOUTN:B CMOUTP:B VDD:B VSS:B
x9 net1 net3 net4 net5 net12 net6 net7 net8 net9 net10 net11 CMOUTN VSS VSS CM_n_net
x10 net2 net13 net14 net15 net16 net17 net18 net19 net20 net21 net22 CMOUTP VDD VDD CM_p_net
x11 A1 B1 net6 net5 net3 net10 net8 net17 net15 net19 net13 net21 net7 net4 net11 net12 net9 net22 net16 net14 net20 net18 VDD VSS
+ PRbiased_net_x5
x12 net23 net2 net24 net1 ISBCS VDD VSS CM_input
x1 net23 net35 net36 net37 net38 net39 net40 net41 net42 net43 net44 VDD VDD VDD CM_p_net
x2 net24 net25 net26 net27 net28 net29 net30 net31 net32 net33 net34 VSS VSS VSS CM_n_net
x3 A2 B2 net29 net27 net25 net33 net31 net39 net37 net41 net35 net43 net30 net26 net34 net28 net32 net44 net38 net36 net42 net40
+ VDD VSS PRbiased_net_x5
.ends


* expanding   symbol:  Folded/FoldedCascode.sym # of pins=6
** sym_path: /home/lci-ufsc/Desktop/Bracolin/TIA_Filter/Folded/FoldedCascode.sym
** sch_path: /home/lci-ufsc/Desktop/Bracolin/TIA_Filter/Folded/FoldedCascode.sch
.subckt FoldedCascode VP VN vout IREF AVDD AVSS
*.PININFO AVDD:B AVSS:B vout:B VP:B VN:B IREF:B
x7 v2 v1 M3_D vout vb3 vb3 AVSS FC_nfets
x5 AVSS AVSS v2 v1 vb2 vb2 AVSS FC_nfets_x2
x1 AVDD AVDD net1 net1 IREF IREF AVDD FC_pfets_x4
x2 net1 net1 v2 v1 VP VN AVDD FC_pfets_x4
x3 net2 net3 M3_D vout vb4 vb4 AVDD FC_pfets_x4
x4 AVDD AVDD net2 net3 M3_D M3_D AVDD FC_pfets_x4
x11 IREF IREF vb2 vb3 vb4 AVDD AVSS FC_bias_net
.ends


* expanding   symbol:  CurrentMirrors/CM_iref.sym # of pins=3
** sym_path: /home/lci-ufsc/Desktop/Bracolin/TIA_Filter/CurrentMirrors/CM_iref.sym
** sch_path: /home/lci-ufsc/Desktop/Bracolin/TIA_Filter/CurrentMirrors/CM_iref.sch
.subckt CM_iref ISBCS2 IREF VSS
*.PININFO ISBCS2:B IREF:B VSS:B
XM6 ISBCS2 ISBCS2 VSS VSS nfet_03v3 L=6u W=2u nf=1 ad='int((nf+1)/2) * W/nf * 0.18u' as='int((nf+2)/2) * W/nf * 0.18u' pd='2*int((nf+1)/2) * (W/nf + 0.18u)'
+ ps='2*int((nf+2)/2) * (W/nf + 0.18u)' nrd='0.18u / W' nrs='0.18u / W' sa=0 sb=0 sd=0 m=1
XM5 IREF ISBCS2 net3 VSS nfet_03v3 L=6u W=2u nf=1 ad='int((nf+1)/2) * W/nf * 0.18u' as='int((nf+2)/2) * W/nf * 0.18u' pd='2*int((nf+1)/2) * (W/nf + 0.18u)'
+ ps='2*int((nf+2)/2) * (W/nf + 0.18u)' nrd='0.18u / W' nrs='0.18u / W' sa=0 sb=0 sd=0 m=1
XM1 net3 ISBCS2 net2 VSS nfet_03v3 L=6u W=2u nf=1 ad='int((nf+1)/2) * W/nf * 0.18u' as='int((nf+2)/2) * W/nf * 0.18u' pd='2*int((nf+1)/2) * (W/nf + 0.18u)'
+ ps='2*int((nf+2)/2) * (W/nf + 0.18u)' nrd='0.18u / W' nrs='0.18u / W' sa=0 sb=0 sd=0 m=1
XM2 net2 ISBCS2 net1 VSS nfet_03v3 L=6u W=2u nf=1 ad='int((nf+1)/2) * W/nf * 0.18u' as='int((nf+2)/2) * W/nf * 0.18u' pd='2*int((nf+1)/2) * (W/nf + 0.18u)'
+ ps='2*int((nf+2)/2) * (W/nf + 0.18u)' nrd='0.18u / W' nrs='0.18u / W' sa=0 sb=0 sd=0 m=1
XM3 net1 ISBCS2 net4 VSS nfet_03v3 L=6u W=2u nf=1 ad='int((nf+1)/2) * W/nf * 0.18u' as='int((nf+2)/2) * W/nf * 0.18u' pd='2*int((nf+1)/2) * (W/nf + 0.18u)'
+ ps='2*int((nf+2)/2) * (W/nf + 0.18u)' nrd='0.18u / W' nrs='0.18u / W' sa=0 sb=0 sd=0 m=1
XM4 net4 ISBCS2 VSS VSS nfet_03v3 L=6u W=2u nf=1 ad='int((nf+1)/2) * W/nf * 0.18u' as='int((nf+2)/2) * W/nf * 0.18u' pd='2*int((nf+1)/2) * (W/nf + 0.18u)'
+ ps='2*int((nf+2)/2) * (W/nf + 0.18u)' nrd='0.18u / W' nrs='0.18u / W' sa=0 sb=0 sd=0 m=1
XM7[1] VSS VSS VSS VSS nfet_03v3 L=6u W=2u nf=1 ad='int((nf+1)/2) * W/nf * 0.18u' as='int((nf+2)/2) * W/nf * 0.18u' pd='2*int((nf+1)/2) * (W/nf + 0.18u)'
+ ps='2*int((nf+2)/2) * (W/nf + 0.18u)' nrd='0.18u / W' nrs='0.18u / W' sa=0 sb=0 sd=0 m=1
XM7[2] VSS VSS VSS VSS nfet_03v3 L=6u W=2u nf=1 ad='int((nf+1)/2) * W/nf * 0.18u' as='int((nf+2)/2) * W/nf * 0.18u' pd='2*int((nf+1)/2) * (W/nf + 0.18u)'
+ ps='2*int((nf+2)/2) * (W/nf + 0.18u)' nrd='0.18u / W' nrs='0.18u / W' sa=0 sb=0 sd=0 m=1
XM7[3] VSS VSS VSS VSS nfet_03v3 L=6u W=2u nf=1 ad='int((nf+1)/2) * W/nf * 0.18u' as='int((nf+2)/2) * W/nf * 0.18u' pd='2*int((nf+1)/2) * (W/nf + 0.18u)'
+ ps='2*int((nf+2)/2) * (W/nf + 0.18u)' nrd='0.18u / W' nrs='0.18u / W' sa=0 sb=0 sd=0 m=1
XM7[4] VSS VSS VSS VSS nfet_03v3 L=6u W=2u nf=1 ad='int((nf+1)/2) * W/nf * 0.18u' as='int((nf+2)/2) * W/nf * 0.18u' pd='2*int((nf+1)/2) * (W/nf + 0.18u)'
+ ps='2*int((nf+2)/2) * (W/nf + 0.18u)' nrd='0.18u / W' nrs='0.18u / W' sa=0 sb=0 sd=0 m=1
XM7[5] VSS VSS VSS VSS nfet_03v3 L=6u W=2u nf=1 ad='int((nf+1)/2) * W/nf * 0.18u' as='int((nf+2)/2) * W/nf * 0.18u' pd='2*int((nf+1)/2) * (W/nf + 0.18u)'
+ ps='2*int((nf+2)/2) * (W/nf + 0.18u)' nrd='0.18u / W' nrs='0.18u / W' sa=0 sb=0 sd=0 m=1
XM7[6] VSS VSS VSS VSS nfet_03v3 L=6u W=2u nf=1 ad='int((nf+1)/2) * W/nf * 0.18u' as='int((nf+2)/2) * W/nf * 0.18u' pd='2*int((nf+1)/2) * (W/nf + 0.18u)'
+ ps='2*int((nf+2)/2) * (W/nf + 0.18u)' nrd='0.18u / W' nrs='0.18u / W' sa=0 sb=0 sd=0 m=1
XM7[7] VSS VSS VSS VSS nfet_03v3 L=6u W=2u nf=1 ad='int((nf+1)/2) * W/nf * 0.18u' as='int((nf+2)/2) * W/nf * 0.18u' pd='2*int((nf+1)/2) * (W/nf + 0.18u)'
+ ps='2*int((nf+2)/2) * (W/nf + 0.18u)' nrd='0.18u / W' nrs='0.18u / W' sa=0 sb=0 sd=0 m=1
XM7[8] VSS VSS VSS VSS nfet_03v3 L=6u W=2u nf=1 ad='int((nf+1)/2) * W/nf * 0.18u' as='int((nf+2)/2) * W/nf * 0.18u' pd='2*int((nf+1)/2) * (W/nf + 0.18u)'
+ ps='2*int((nf+2)/2) * (W/nf + 0.18u)' nrd='0.18u / W' nrs='0.18u / W' sa=0 sb=0 sd=0 m=1
XM7[9] VSS VSS VSS VSS nfet_03v3 L=6u W=2u nf=1 ad='int((nf+1)/2) * W/nf * 0.18u' as='int((nf+2)/2) * W/nf * 0.18u' pd='2*int((nf+1)/2) * (W/nf + 0.18u)'
+ ps='2*int((nf+2)/2) * (W/nf + 0.18u)' nrd='0.18u / W' nrs='0.18u / W' sa=0 sb=0 sd=0 m=1
XM7[10] VSS VSS VSS VSS nfet_03v3 L=6u W=2u nf=1 ad='int((nf+1)/2) * W/nf * 0.18u' as='int((nf+2)/2) * W/nf * 0.18u' pd='2*int((nf+1)/2) * (W/nf + 0.18u)'
+ ps='2*int((nf+2)/2) * (W/nf + 0.18u)' nrd='0.18u / W' nrs='0.18u / W' sa=0 sb=0 sd=0 m=1
XM7[11] VSS VSS VSS VSS nfet_03v3 L=6u W=2u nf=1 ad='int((nf+1)/2) * W/nf * 0.18u' as='int((nf+2)/2) * W/nf * 0.18u' pd='2*int((nf+1)/2) * (W/nf + 0.18u)'
+ ps='2*int((nf+2)/2) * (W/nf + 0.18u)' nrd='0.18u / W' nrs='0.18u / W' sa=0 sb=0 sd=0 m=1
XM7[12] VSS VSS VSS VSS nfet_03v3 L=6u W=2u nf=1 ad='int((nf+1)/2) * W/nf * 0.18u' as='int((nf+2)/2) * W/nf * 0.18u' pd='2*int((nf+1)/2) * (W/nf + 0.18u)'
+ ps='2*int((nf+2)/2) * (W/nf + 0.18u)' nrd='0.18u / W' nrs='0.18u / W' sa=0 sb=0 sd=0 m=1
XM7[13] VSS VSS VSS VSS nfet_03v3 L=6u W=2u nf=1 ad='int((nf+1)/2) * W/nf * 0.18u' as='int((nf+2)/2) * W/nf * 0.18u' pd='2*int((nf+1)/2) * (W/nf + 0.18u)'
+ ps='2*int((nf+2)/2) * (W/nf + 0.18u)' nrd='0.18u / W' nrs='0.18u / W' sa=0 sb=0 sd=0 m=1
XM7[14] VSS VSS VSS VSS nfet_03v3 L=6u W=2u nf=1 ad='int((nf+1)/2) * W/nf * 0.18u' as='int((nf+2)/2) * W/nf * 0.18u' pd='2*int((nf+1)/2) * (W/nf + 0.18u)'
+ ps='2*int((nf+2)/2) * (W/nf + 0.18u)' nrd='0.18u / W' nrs='0.18u / W' sa=0 sb=0 sd=0 m=1
XM7[15] VSS VSS VSS VSS nfet_03v3 L=6u W=2u nf=1 ad='int((nf+1)/2) * W/nf * 0.18u' as='int((nf+2)/2) * W/nf * 0.18u' pd='2*int((nf+1)/2) * (W/nf + 0.18u)'
+ ps='2*int((nf+2)/2) * (W/nf + 0.18u)' nrd='0.18u / W' nrs='0.18u / W' sa=0 sb=0 sd=0 m=1
XM7[16] VSS VSS VSS VSS nfet_03v3 L=6u W=2u nf=1 ad='int((nf+1)/2) * W/nf * 0.18u' as='int((nf+2)/2) * W/nf * 0.18u' pd='2*int((nf+1)/2) * (W/nf + 0.18u)'
+ ps='2*int((nf+2)/2) * (W/nf + 0.18u)' nrd='0.18u / W' nrs='0.18u / W' sa=0 sb=0 sd=0 m=1
XM7[17] VSS VSS VSS VSS nfet_03v3 L=6u W=2u nf=1 ad='int((nf+1)/2) * W/nf * 0.18u' as='int((nf+2)/2) * W/nf * 0.18u' pd='2*int((nf+1)/2) * (W/nf + 0.18u)'
+ ps='2*int((nf+2)/2) * (W/nf + 0.18u)' nrd='0.18u / W' nrs='0.18u / W' sa=0 sb=0 sd=0 m=1
XM7[18] VSS VSS VSS VSS nfet_03v3 L=6u W=2u nf=1 ad='int((nf+1)/2) * W/nf * 0.18u' as='int((nf+2)/2) * W/nf * 0.18u' pd='2*int((nf+1)/2) * (W/nf + 0.18u)'
+ ps='2*int((nf+2)/2) * (W/nf + 0.18u)' nrd='0.18u / W' nrs='0.18u / W' sa=0 sb=0 sd=0 m=1
.ends


* expanding   symbol:  CurrentMirrors/CM_n_net.sym # of pins=14
** sym_path: /home/lci-ufsc/Desktop/Bracolin/TIA_Filter/CurrentMirrors/CM_n_net.sym
** sch_path: /home/lci-ufsc/Desktop/Bracolin/TIA_Filter/CurrentMirrors/CM_n_net.sch
.subckt CM_n_net IN OUT1 OUT2 OUT3 OUT4 OUT5 OUT6 OUT7 OUT8 OUT9 OUT10 OUT11 OUT12 VSS
*.PININFO IN:B OUT1:B OUT2:B VSS:B OUT3:B OUT4:B OUT5:B OUT6:B OUT7:B OUT8:B OUT9:B OUT10:B OUT11:B OUT12:B
x1 IN OUT1 OUT2 VSS CM_nfets
x2 IN OUT3 OUT4 VSS CM_nfets
x4 IN OUT9 OUT10 VSS CM_nfets
x5 IN OUT7 OUT8 VSS CM_nfets
x3 IN OUT5 OUT6 VSS CM_nfets
x7 IN OUT11 OUT12 VSS CM_nfets
.ends


* expanding   symbol:  CurrentMirrors/CM_p_net.sym # of pins=14
** sym_path: /home/lci-ufsc/Desktop/Bracolin/TIA_Filter/CurrentMirrors/CM_p_net.sym
** sch_path: /home/lci-ufsc/Desktop/Bracolin/TIA_Filter/CurrentMirrors/CM_p_net.sch
.subckt CM_p_net IN OUT1 OUT2 OUT3 OUT4 OUT5 OUT6 OUT7 OUT8 OUT9 OUT10 OUT11 OUT12 VDD
*.PININFO IN:B OUT1:B OUT2:B VDD:B OUT3:B OUT4:B OUT5:B OUT6:B OUT7:B OUT8:B OUT9:B OUT10:B OUT11:B OUT12:B
x1 IN OUT1 OUT2 VDD CM_pfets
x2 IN OUT3 OUT4 VDD CM_pfets
x3 IN OUT5 OUT6 VDD CM_pfets
x4 IN OUT7 OUT8 VDD CM_pfets
x5 IN OUT9 OUT10 VDD CM_pfets
x6 IN OUT11 OUT12 VDD CM_pfets
.ends


* expanding   symbol:  PseudoResistor/PRbiased_net_x5.sym # of pins=24
** sym_path: /home/lci-ufsc/Desktop/Bracolin/TIA_Filter/PseudoResistor/PRbiased_net_x5.sym
** sch_path: /home/lci-ufsc/Desktop/Bracolin/TIA_Filter/PseudoResistor/PRbiased_net_x5.sch
.subckt PRbiased_net_x5 VA VB IBN3 IBN2 IBN1 IBN5 IBN4 IBP3 IBP2 IBP4 IBP1 IBP5 ITN3 ITN1 ITN5 ITN2 ITN4 ITP5 ITP2 ITP1 ITP4 ITP3
+ VDD VSS
*.PININFO VA:B VB:B IBN1:B IBP1:B ITN1:B ITP1:B VDD:B VSS:B IBN2:B IBP2:B ITN2:B ITP2:B IBN3:B IBP3:B ITN3:B ITP3:B IBN4:B IBP4:B
*+ ITN4:B ITP4:B IBN5:B IBP5:B ITN5:B ITP5:B
x1 VA net1 IBN1 IBP1 ITN1 ITP1 VDD VSS PRbiased_net
x2 net1 net2 IBN2 IBP2 ITN2 ITP2 VDD VSS PRbiased_net
x3 net2 net3 IBN3 IBP3 ITN3 ITP3 VDD VSS PRbiased_net
x4 net3 net4 IBN4 IBP4 ITN4 ITP4 VDD VSS PRbiased_net
x5 net4 VB IBN5 IBP5 ITN5 ITP5 VDD VSS PRbiased_net
.ends


* expanding   symbol:  CurrentMirrors/CM_input.sym # of pins=7
** sym_path: /home/lci-ufsc/Desktop/Bracolin/TIA_Filter/CurrentMirrors/CM_input.sym
** sch_path: /home/lci-ufsc/Desktop/Bracolin/TIA_Filter/CurrentMirrors/CM_input.sch
.subckt CM_input IP IP2 IN IN2 ISBCS VDD VSS
*.PININFO IP:B IP2:B IN:B IN2:B ISBCS:B VDD:B VSS:B
XM1[1] ISBCS ISBCS net1[1] VSS nfet_03v3 L=6u W=2u nf=1 ad='int((nf+1)/2) * W/nf * 0.18u' as='int((nf+2)/2) * W/nf * 0.18u' pd='2*int((nf+1)/2) * (W/nf + 0.18u)'
+ ps='2*int((nf+2)/2) * (W/nf + 0.18u)' nrd='0.18u / W' nrs='0.18u / W' sa=0 sb=0 sd=0 m=1
XM1[2] ISBCS ISBCS net1[0] VSS nfet_03v3 L=6u W=2u nf=1 ad='int((nf+1)/2) * W/nf * 0.18u' as='int((nf+2)/2) * W/nf * 0.18u' pd='2*int((nf+1)/2) * (W/nf + 0.18u)'
+ ps='2*int((nf+2)/2) * (W/nf + 0.18u)' nrd='0.18u / W' nrs='0.18u / W' sa=0 sb=0 sd=0 m=1
XM2[1] vgp vgp net5[1] VDD pfet_03v3 L=6u W=2u nf=1 ad='int((nf+1)/2) * W/nf * 0.18u' as='int((nf+2)/2) * W/nf * 0.18u' pd='2*int((nf+1)/2) * (W/nf + 0.18u)'
+ ps='2*int((nf+2)/2) * (W/nf + 0.18u)' nrd='0.18u / W' nrs='0.18u / W' sa=0 sb=0 sd=0 m=1
XM2[2] vgp vgp net5[0] VDD pfet_03v3 L=6u W=2u nf=1 ad='int((nf+1)/2) * W/nf * 0.18u' as='int((nf+2)/2) * W/nf * 0.18u' pd='2*int((nf+1)/2) * (W/nf + 0.18u)'
+ ps='2*int((nf+2)/2) * (W/nf + 0.18u)' nrd='0.18u / W' nrs='0.18u / W' sa=0 sb=0 sd=0 m=1
XM3[1] net1[1] ISBCS VSS VSS nfet_03v3 L=6u W=2u nf=1 ad='int((nf+1)/2) * W/nf * 0.18u' as='int((nf+2)/2) * W/nf * 0.18u' pd='2*int((nf+1)/2) * (W/nf + 0.18u)'
+ ps='2*int((nf+2)/2) * (W/nf + 0.18u)' nrd='0.18u / W' nrs='0.18u / W' sa=0 sb=0 sd=0 m=1
XM3[2] net1[0] ISBCS VSS VSS nfet_03v3 L=6u W=2u nf=1 ad='int((nf+1)/2) * W/nf * 0.18u' as='int((nf+2)/2) * W/nf * 0.18u' pd='2*int((nf+1)/2) * (W/nf + 0.18u)'
+ ps='2*int((nf+2)/2) * (W/nf + 0.18u)' nrd='0.18u / W' nrs='0.18u / W' sa=0 sb=0 sd=0 m=1
XM4[1] IP ISBCS net2[1] VSS nfet_03v3 L=6u W=2u nf=1 ad='int((nf+1)/2) * W/nf * 0.18u' as='int((nf+2)/2) * W/nf * 0.18u' pd='2*int((nf+1)/2) * (W/nf + 0.18u)'
+ ps='2*int((nf+2)/2) * (W/nf + 0.18u)' nrd='0.18u / W' nrs='0.18u / W' sa=0 sb=0 sd=0 m=1
XM4[2] IP ISBCS net2[0] VSS nfet_03v3 L=6u W=2u nf=1 ad='int((nf+1)/2) * W/nf * 0.18u' as='int((nf+2)/2) * W/nf * 0.18u' pd='2*int((nf+1)/2) * (W/nf + 0.18u)'
+ ps='2*int((nf+2)/2) * (W/nf + 0.18u)' nrd='0.18u / W' nrs='0.18u / W' sa=0 sb=0 sd=0 m=1
XM5[1] net2[1] ISBCS VSS VSS nfet_03v3 L=6u W=2u nf=1 ad='int((nf+1)/2) * W/nf * 0.18u' as='int((nf+2)/2) * W/nf * 0.18u' pd='2*int((nf+1)/2) * (W/nf + 0.18u)'
+ ps='2*int((nf+2)/2) * (W/nf + 0.18u)' nrd='0.18u / W' nrs='0.18u / W' sa=0 sb=0 sd=0 m=1
XM5[2] net2[0] ISBCS VSS VSS nfet_03v3 L=6u W=2u nf=1 ad='int((nf+1)/2) * W/nf * 0.18u' as='int((nf+2)/2) * W/nf * 0.18u' pd='2*int((nf+1)/2) * (W/nf + 0.18u)'
+ ps='2*int((nf+2)/2) * (W/nf + 0.18u)' nrd='0.18u / W' nrs='0.18u / W' sa=0 sb=0 sd=0 m=1
XM6[1] IP2 ISBCS net3[1] VSS nfet_03v3 L=6u W=2u nf=1 ad='int((nf+1)/2) * W/nf * 0.18u' as='int((nf+2)/2) * W/nf * 0.18u' pd='2*int((nf+1)/2) * (W/nf + 0.18u)'
+ ps='2*int((nf+2)/2) * (W/nf + 0.18u)' nrd='0.18u / W' nrs='0.18u / W' sa=0 sb=0 sd=0 m=1
XM6[2] IP2 ISBCS net3[0] VSS nfet_03v3 L=6u W=2u nf=1 ad='int((nf+1)/2) * W/nf * 0.18u' as='int((nf+2)/2) * W/nf * 0.18u' pd='2*int((nf+1)/2) * (W/nf + 0.18u)'
+ ps='2*int((nf+2)/2) * (W/nf + 0.18u)' nrd='0.18u / W' nrs='0.18u / W' sa=0 sb=0 sd=0 m=1
XM7[1] net3[1] ISBCS VSS VSS nfet_03v3 L=6u W=2u nf=1 ad='int((nf+1)/2) * W/nf * 0.18u' as='int((nf+2)/2) * W/nf * 0.18u' pd='2*int((nf+1)/2) * (W/nf + 0.18u)'
+ ps='2*int((nf+2)/2) * (W/nf + 0.18u)' nrd='0.18u / W' nrs='0.18u / W' sa=0 sb=0 sd=0 m=1
XM7[2] net3[0] ISBCS VSS VSS nfet_03v3 L=6u W=2u nf=1 ad='int((nf+1)/2) * W/nf * 0.18u' as='int((nf+2)/2) * W/nf * 0.18u' pd='2*int((nf+1)/2) * (W/nf + 0.18u)'
+ ps='2*int((nf+2)/2) * (W/nf + 0.18u)' nrd='0.18u / W' nrs='0.18u / W' sa=0 sb=0 sd=0 m=1
XM8[1] vgp ISBCS net4[1] VSS nfet_03v3 L=6u W=2u nf=1 ad='int((nf+1)/2) * W/nf * 0.18u' as='int((nf+2)/2) * W/nf * 0.18u' pd='2*int((nf+1)/2) * (W/nf + 0.18u)'
+ ps='2*int((nf+2)/2) * (W/nf + 0.18u)' nrd='0.18u / W' nrs='0.18u / W' sa=0 sb=0 sd=0 m=1
XM8[2] vgp ISBCS net4[0] VSS nfet_03v3 L=6u W=2u nf=1 ad='int((nf+1)/2) * W/nf * 0.18u' as='int((nf+2)/2) * W/nf * 0.18u' pd='2*int((nf+1)/2) * (W/nf + 0.18u)'
+ ps='2*int((nf+2)/2) * (W/nf + 0.18u)' nrd='0.18u / W' nrs='0.18u / W' sa=0 sb=0 sd=0 m=1
XM9[1] net4[1] ISBCS VSS VSS nfet_03v3 L=6u W=2u nf=1 ad='int((nf+1)/2) * W/nf * 0.18u' as='int((nf+2)/2) * W/nf * 0.18u' pd='2*int((nf+1)/2) * (W/nf + 0.18u)'
+ ps='2*int((nf+2)/2) * (W/nf + 0.18u)' nrd='0.18u / W' nrs='0.18u / W' sa=0 sb=0 sd=0 m=1
XM9[2] net4[0] ISBCS VSS VSS nfet_03v3 L=6u W=2u nf=1 ad='int((nf+1)/2) * W/nf * 0.18u' as='int((nf+2)/2) * W/nf * 0.18u' pd='2*int((nf+1)/2) * (W/nf + 0.18u)'
+ ps='2*int((nf+2)/2) * (W/nf + 0.18u)' nrd='0.18u / W' nrs='0.18u / W' sa=0 sb=0 sd=0 m=1
XM10[1] net5[1] vgp VDD VDD pfet_03v3 L=6u W=2u nf=1 ad='int((nf+1)/2) * W/nf * 0.18u' as='int((nf+2)/2) * W/nf * 0.18u' pd='2*int((nf+1)/2) * (W/nf + 0.18u)'
+ ps='2*int((nf+2)/2) * (W/nf + 0.18u)' nrd='0.18u / W' nrs='0.18u / W' sa=0 sb=0 sd=0 m=1
XM10[2] net5[0] vgp VDD VDD pfet_03v3 L=6u W=2u nf=1 ad='int((nf+1)/2) * W/nf * 0.18u' as='int((nf+2)/2) * W/nf * 0.18u' pd='2*int((nf+1)/2) * (W/nf + 0.18u)'
+ ps='2*int((nf+2)/2) * (W/nf + 0.18u)' nrd='0.18u / W' nrs='0.18u / W' sa=0 sb=0 sd=0 m=1
XM11[1] IN vgp net6[1] VDD pfet_03v3 L=6u W=2u nf=1 ad='int((nf+1)/2) * W/nf * 0.18u' as='int((nf+2)/2) * W/nf * 0.18u' pd='2*int((nf+1)/2) * (W/nf + 0.18u)'
+ ps='2*int((nf+2)/2) * (W/nf + 0.18u)' nrd='0.18u / W' nrs='0.18u / W' sa=0 sb=0 sd=0 m=1
XM11[2] IN vgp net6[0] VDD pfet_03v3 L=6u W=2u nf=1 ad='int((nf+1)/2) * W/nf * 0.18u' as='int((nf+2)/2) * W/nf * 0.18u' pd='2*int((nf+1)/2) * (W/nf + 0.18u)'
+ ps='2*int((nf+2)/2) * (W/nf + 0.18u)' nrd='0.18u / W' nrs='0.18u / W' sa=0 sb=0 sd=0 m=1
XM12[1] net6[1] vgp VDD VDD pfet_03v3 L=6u W=2u nf=1 ad='int((nf+1)/2) * W/nf * 0.18u' as='int((nf+2)/2) * W/nf * 0.18u' pd='2*int((nf+1)/2) * (W/nf + 0.18u)'
+ ps='2*int((nf+2)/2) * (W/nf + 0.18u)' nrd='0.18u / W' nrs='0.18u / W' sa=0 sb=0 sd=0 m=1
XM12[2] net6[0] vgp VDD VDD pfet_03v3 L=6u W=2u nf=1 ad='int((nf+1)/2) * W/nf * 0.18u' as='int((nf+2)/2) * W/nf * 0.18u' pd='2*int((nf+1)/2) * (W/nf + 0.18u)'
+ ps='2*int((nf+2)/2) * (W/nf + 0.18u)' nrd='0.18u / W' nrs='0.18u / W' sa=0 sb=0 sd=0 m=1
XM13[1] IN2 vgp net7[1] VDD pfet_03v3 L=6u W=2u nf=1 ad='int((nf+1)/2) * W/nf * 0.18u' as='int((nf+2)/2) * W/nf * 0.18u' pd='2*int((nf+1)/2) * (W/nf + 0.18u)'
+ ps='2*int((nf+2)/2) * (W/nf + 0.18u)' nrd='0.18u / W' nrs='0.18u / W' sa=0 sb=0 sd=0 m=1
XM13[2] IN2 vgp net7[0] VDD pfet_03v3 L=6u W=2u nf=1 ad='int((nf+1)/2) * W/nf * 0.18u' as='int((nf+2)/2) * W/nf * 0.18u' pd='2*int((nf+1)/2) * (W/nf + 0.18u)'
+ ps='2*int((nf+2)/2) * (W/nf + 0.18u)' nrd='0.18u / W' nrs='0.18u / W' sa=0 sb=0 sd=0 m=1
XM16[1] net7[1] vgp VDD VDD pfet_03v3 L=6u W=2u nf=1 ad='int((nf+1)/2) * W/nf * 0.18u' as='int((nf+2)/2) * W/nf * 0.18u' pd='2*int((nf+1)/2) * (W/nf + 0.18u)'
+ ps='2*int((nf+2)/2) * (W/nf + 0.18u)' nrd='0.18u / W' nrs='0.18u / W' sa=0 sb=0 sd=0 m=1
XM16[2] net7[0] vgp VDD VDD pfet_03v3 L=6u W=2u nf=1 ad='int((nf+1)/2) * W/nf * 0.18u' as='int((nf+2)/2) * W/nf * 0.18u' pd='2*int((nf+1)/2) * (W/nf + 0.18u)'
+ ps='2*int((nf+2)/2) * (W/nf + 0.18u)' nrd='0.18u / W' nrs='0.18u / W' sa=0 sb=0 sd=0 m=1
XM14[1] VSS VSS VSS VSS nfet_03v3 L=6u W=2u nf=1 ad='int((nf+1)/2) * W/nf * 0.18u' as='int((nf+2)/2) * W/nf * 0.18u' pd='2*int((nf+1)/2) * (W/nf + 0.18u)'
+ ps='2*int((nf+2)/2) * (W/nf + 0.18u)' nrd='0.18u / W' nrs='0.18u / W' sa=0 sb=0 sd=0 m=1
XM14[2] VSS VSS VSS VSS nfet_03v3 L=6u W=2u nf=1 ad='int((nf+1)/2) * W/nf * 0.18u' as='int((nf+2)/2) * W/nf * 0.18u' pd='2*int((nf+1)/2) * (W/nf + 0.18u)'
+ ps='2*int((nf+2)/2) * (W/nf + 0.18u)' nrd='0.18u / W' nrs='0.18u / W' sa=0 sb=0 sd=0 m=1
XM14[3] VSS VSS VSS VSS nfet_03v3 L=6u W=2u nf=1 ad='int((nf+1)/2) * W/nf * 0.18u' as='int((nf+2)/2) * W/nf * 0.18u' pd='2*int((nf+1)/2) * (W/nf + 0.18u)'
+ ps='2*int((nf+2)/2) * (W/nf + 0.18u)' nrd='0.18u / W' nrs='0.18u / W' sa=0 sb=0 sd=0 m=1
XM14[4] VSS VSS VSS VSS nfet_03v3 L=6u W=2u nf=1 ad='int((nf+1)/2) * W/nf * 0.18u' as='int((nf+2)/2) * W/nf * 0.18u' pd='2*int((nf+1)/2) * (W/nf + 0.18u)'
+ ps='2*int((nf+2)/2) * (W/nf + 0.18u)' nrd='0.18u / W' nrs='0.18u / W' sa=0 sb=0 sd=0 m=1
XM14[5] VSS VSS VSS VSS nfet_03v3 L=6u W=2u nf=1 ad='int((nf+1)/2) * W/nf * 0.18u' as='int((nf+2)/2) * W/nf * 0.18u' pd='2*int((nf+1)/2) * (W/nf + 0.18u)'
+ ps='2*int((nf+2)/2) * (W/nf + 0.18u)' nrd='0.18u / W' nrs='0.18u / W' sa=0 sb=0 sd=0 m=1
XM14[6] VSS VSS VSS VSS nfet_03v3 L=6u W=2u nf=1 ad='int((nf+1)/2) * W/nf * 0.18u' as='int((nf+2)/2) * W/nf * 0.18u' pd='2*int((nf+1)/2) * (W/nf + 0.18u)'
+ ps='2*int((nf+2)/2) * (W/nf + 0.18u)' nrd='0.18u / W' nrs='0.18u / W' sa=0 sb=0 sd=0 m=1
XM14[7] VSS VSS VSS VSS nfet_03v3 L=6u W=2u nf=1 ad='int((nf+1)/2) * W/nf * 0.18u' as='int((nf+2)/2) * W/nf * 0.18u' pd='2*int((nf+1)/2) * (W/nf + 0.18u)'
+ ps='2*int((nf+2)/2) * (W/nf + 0.18u)' nrd='0.18u / W' nrs='0.18u / W' sa=0 sb=0 sd=0 m=1
XM14[8] VSS VSS VSS VSS nfet_03v3 L=6u W=2u nf=1 ad='int((nf+1)/2) * W/nf * 0.18u' as='int((nf+2)/2) * W/nf * 0.18u' pd='2*int((nf+1)/2) * (W/nf + 0.18u)'
+ ps='2*int((nf+2)/2) * (W/nf + 0.18u)' nrd='0.18u / W' nrs='0.18u / W' sa=0 sb=0 sd=0 m=1
XM14[9] VSS VSS VSS VSS nfet_03v3 L=6u W=2u nf=1 ad='int((nf+1)/2) * W/nf * 0.18u' as='int((nf+2)/2) * W/nf * 0.18u' pd='2*int((nf+1)/2) * (W/nf + 0.18u)'
+ ps='2*int((nf+2)/2) * (W/nf + 0.18u)' nrd='0.18u / W' nrs='0.18u / W' sa=0 sb=0 sd=0 m=1
XM14[10] VSS VSS VSS VSS nfet_03v3 L=6u W=2u nf=1 ad='int((nf+1)/2) * W/nf * 0.18u' as='int((nf+2)/2) * W/nf * 0.18u' pd='2*int((nf+1)/2) * (W/nf + 0.18u)'
+ ps='2*int((nf+2)/2) * (W/nf + 0.18u)' nrd='0.18u / W' nrs='0.18u / W' sa=0 sb=0 sd=0 m=1
XM14[11] VSS VSS VSS VSS nfet_03v3 L=6u W=2u nf=1 ad='int((nf+1)/2) * W/nf * 0.18u' as='int((nf+2)/2) * W/nf * 0.18u' pd='2*int((nf+1)/2) * (W/nf + 0.18u)'
+ ps='2*int((nf+2)/2) * (W/nf + 0.18u)' nrd='0.18u / W' nrs='0.18u / W' sa=0 sb=0 sd=0 m=1
XM14[12] VSS VSS VSS VSS nfet_03v3 L=6u W=2u nf=1 ad='int((nf+1)/2) * W/nf * 0.18u' as='int((nf+2)/2) * W/nf * 0.18u' pd='2*int((nf+1)/2) * (W/nf + 0.18u)'
+ ps='2*int((nf+2)/2) * (W/nf + 0.18u)' nrd='0.18u / W' nrs='0.18u / W' sa=0 sb=0 sd=0 m=1
XM14[13] VSS VSS VSS VSS nfet_03v3 L=6u W=2u nf=1 ad='int((nf+1)/2) * W/nf * 0.18u' as='int((nf+2)/2) * W/nf * 0.18u' pd='2*int((nf+1)/2) * (W/nf + 0.18u)'
+ ps='2*int((nf+2)/2) * (W/nf + 0.18u)' nrd='0.18u / W' nrs='0.18u / W' sa=0 sb=0 sd=0 m=1
XM14[14] VSS VSS VSS VSS nfet_03v3 L=6u W=2u nf=1 ad='int((nf+1)/2) * W/nf * 0.18u' as='int((nf+2)/2) * W/nf * 0.18u' pd='2*int((nf+1)/2) * (W/nf + 0.18u)'
+ ps='2*int((nf+2)/2) * (W/nf + 0.18u)' nrd='0.18u / W' nrs='0.18u / W' sa=0 sb=0 sd=0 m=1
XM14[15] VSS VSS VSS VSS nfet_03v3 L=6u W=2u nf=1 ad='int((nf+1)/2) * W/nf * 0.18u' as='int((nf+2)/2) * W/nf * 0.18u' pd='2*int((nf+1)/2) * (W/nf + 0.18u)'
+ ps='2*int((nf+2)/2) * (W/nf + 0.18u)' nrd='0.18u / W' nrs='0.18u / W' sa=0 sb=0 sd=0 m=1
XM14[16] VSS VSS VSS VSS nfet_03v3 L=6u W=2u nf=1 ad='int((nf+1)/2) * W/nf * 0.18u' as='int((nf+2)/2) * W/nf * 0.18u' pd='2*int((nf+1)/2) * (W/nf + 0.18u)'
+ ps='2*int((nf+2)/2) * (W/nf + 0.18u)' nrd='0.18u / W' nrs='0.18u / W' sa=0 sb=0 sd=0 m=1
XM14[17] VSS VSS VSS VSS nfet_03v3 L=6u W=2u nf=1 ad='int((nf+1)/2) * W/nf * 0.18u' as='int((nf+2)/2) * W/nf * 0.18u' pd='2*int((nf+1)/2) * (W/nf + 0.18u)'
+ ps='2*int((nf+2)/2) * (W/nf + 0.18u)' nrd='0.18u / W' nrs='0.18u / W' sa=0 sb=0 sd=0 m=1
XM14[18] VSS VSS VSS VSS nfet_03v3 L=6u W=2u nf=1 ad='int((nf+1)/2) * W/nf * 0.18u' as='int((nf+2)/2) * W/nf * 0.18u' pd='2*int((nf+1)/2) * (W/nf + 0.18u)'
+ ps='2*int((nf+2)/2) * (W/nf + 0.18u)' nrd='0.18u / W' nrs='0.18u / W' sa=0 sb=0 sd=0 m=1
XM14[19] VSS VSS VSS VSS nfet_03v3 L=6u W=2u nf=1 ad='int((nf+1)/2) * W/nf * 0.18u' as='int((nf+2)/2) * W/nf * 0.18u' pd='2*int((nf+1)/2) * (W/nf + 0.18u)'
+ ps='2*int((nf+2)/2) * (W/nf + 0.18u)' nrd='0.18u / W' nrs='0.18u / W' sa=0 sb=0 sd=0 m=1
XM14[20] VSS VSS VSS VSS nfet_03v3 L=6u W=2u nf=1 ad='int((nf+1)/2) * W/nf * 0.18u' as='int((nf+2)/2) * W/nf * 0.18u' pd='2*int((nf+1)/2) * (W/nf + 0.18u)'
+ ps='2*int((nf+2)/2) * (W/nf + 0.18u)' nrd='0.18u / W' nrs='0.18u / W' sa=0 sb=0 sd=0 m=1
XM15[1] VDD VDD VDD VDD pfet_03v3 L=6u W=2u nf=1 ad='int((nf+1)/2) * W/nf * 0.18u' as='int((nf+2)/2) * W/nf * 0.18u' pd='2*int((nf+1)/2) * (W/nf + 0.18u)'
+ ps='2*int((nf+2)/2) * (W/nf + 0.18u)' nrd='0.18u / W' nrs='0.18u / W' sa=0 sb=0 sd=0 m=1
XM15[2] VDD VDD VDD VDD pfet_03v3 L=6u W=2u nf=1 ad='int((nf+1)/2) * W/nf * 0.18u' as='int((nf+2)/2) * W/nf * 0.18u' pd='2*int((nf+1)/2) * (W/nf + 0.18u)'
+ ps='2*int((nf+2)/2) * (W/nf + 0.18u)' nrd='0.18u / W' nrs='0.18u / W' sa=0 sb=0 sd=0 m=1
XM15[3] VDD VDD VDD VDD pfet_03v3 L=6u W=2u nf=1 ad='int((nf+1)/2) * W/nf * 0.18u' as='int((nf+2)/2) * W/nf * 0.18u' pd='2*int((nf+1)/2) * (W/nf + 0.18u)'
+ ps='2*int((nf+2)/2) * (W/nf + 0.18u)' nrd='0.18u / W' nrs='0.18u / W' sa=0 sb=0 sd=0 m=1
XM15[4] VDD VDD VDD VDD pfet_03v3 L=6u W=2u nf=1 ad='int((nf+1)/2) * W/nf * 0.18u' as='int((nf+2)/2) * W/nf * 0.18u' pd='2*int((nf+1)/2) * (W/nf + 0.18u)'
+ ps='2*int((nf+2)/2) * (W/nf + 0.18u)' nrd='0.18u / W' nrs='0.18u / W' sa=0 sb=0 sd=0 m=1
XM15[5] VDD VDD VDD VDD pfet_03v3 L=6u W=2u nf=1 ad='int((nf+1)/2) * W/nf * 0.18u' as='int((nf+2)/2) * W/nf * 0.18u' pd='2*int((nf+1)/2) * (W/nf + 0.18u)'
+ ps='2*int((nf+2)/2) * (W/nf + 0.18u)' nrd='0.18u / W' nrs='0.18u / W' sa=0 sb=0 sd=0 m=1
XM15[6] VDD VDD VDD VDD pfet_03v3 L=6u W=2u nf=1 ad='int((nf+1)/2) * W/nf * 0.18u' as='int((nf+2)/2) * W/nf * 0.18u' pd='2*int((nf+1)/2) * (W/nf + 0.18u)'
+ ps='2*int((nf+2)/2) * (W/nf + 0.18u)' nrd='0.18u / W' nrs='0.18u / W' sa=0 sb=0 sd=0 m=1
XM15[7] VDD VDD VDD VDD pfet_03v3 L=6u W=2u nf=1 ad='int((nf+1)/2) * W/nf * 0.18u' as='int((nf+2)/2) * W/nf * 0.18u' pd='2*int((nf+1)/2) * (W/nf + 0.18u)'
+ ps='2*int((nf+2)/2) * (W/nf + 0.18u)' nrd='0.18u / W' nrs='0.18u / W' sa=0 sb=0 sd=0 m=1
XM15[8] VDD VDD VDD VDD pfet_03v3 L=6u W=2u nf=1 ad='int((nf+1)/2) * W/nf * 0.18u' as='int((nf+2)/2) * W/nf * 0.18u' pd='2*int((nf+1)/2) * (W/nf + 0.18u)'
+ ps='2*int((nf+2)/2) * (W/nf + 0.18u)' nrd='0.18u / W' nrs='0.18u / W' sa=0 sb=0 sd=0 m=1
XM15[9] VDD VDD VDD VDD pfet_03v3 L=6u W=2u nf=1 ad='int((nf+1)/2) * W/nf * 0.18u' as='int((nf+2)/2) * W/nf * 0.18u' pd='2*int((nf+1)/2) * (W/nf + 0.18u)'
+ ps='2*int((nf+2)/2) * (W/nf + 0.18u)' nrd='0.18u / W' nrs='0.18u / W' sa=0 sb=0 sd=0 m=1
XM15[10] VDD VDD VDD VDD pfet_03v3 L=6u W=2u nf=1 ad='int((nf+1)/2) * W/nf * 0.18u' as='int((nf+2)/2) * W/nf * 0.18u' pd='2*int((nf+1)/2) * (W/nf + 0.18u)'
+ ps='2*int((nf+2)/2) * (W/nf + 0.18u)' nrd='0.18u / W' nrs='0.18u / W' sa=0 sb=0 sd=0 m=1
XM15[11] VDD VDD VDD VDD pfet_03v3 L=6u W=2u nf=1 ad='int((nf+1)/2) * W/nf * 0.18u' as='int((nf+2)/2) * W/nf * 0.18u' pd='2*int((nf+1)/2) * (W/nf + 0.18u)'
+ ps='2*int((nf+2)/2) * (W/nf + 0.18u)' nrd='0.18u / W' nrs='0.18u / W' sa=0 sb=0 sd=0 m=1
XM15[12] VDD VDD VDD VDD pfet_03v3 L=6u W=2u nf=1 ad='int((nf+1)/2) * W/nf * 0.18u' as='int((nf+2)/2) * W/nf * 0.18u' pd='2*int((nf+1)/2) * (W/nf + 0.18u)'
+ ps='2*int((nf+2)/2) * (W/nf + 0.18u)' nrd='0.18u / W' nrs='0.18u / W' sa=0 sb=0 sd=0 m=1
XM15[13] VDD VDD VDD VDD pfet_03v3 L=6u W=2u nf=1 ad='int((nf+1)/2) * W/nf * 0.18u' as='int((nf+2)/2) * W/nf * 0.18u' pd='2*int((nf+1)/2) * (W/nf + 0.18u)'
+ ps='2*int((nf+2)/2) * (W/nf + 0.18u)' nrd='0.18u / W' nrs='0.18u / W' sa=0 sb=0 sd=0 m=1
XM15[14] VDD VDD VDD VDD pfet_03v3 L=6u W=2u nf=1 ad='int((nf+1)/2) * W/nf * 0.18u' as='int((nf+2)/2) * W/nf * 0.18u' pd='2*int((nf+1)/2) * (W/nf + 0.18u)'
+ ps='2*int((nf+2)/2) * (W/nf + 0.18u)' nrd='0.18u / W' nrs='0.18u / W' sa=0 sb=0 sd=0 m=1
XM15[15] VDD VDD VDD VDD pfet_03v3 L=6u W=2u nf=1 ad='int((nf+1)/2) * W/nf * 0.18u' as='int((nf+2)/2) * W/nf * 0.18u' pd='2*int((nf+1)/2) * (W/nf + 0.18u)'
+ ps='2*int((nf+2)/2) * (W/nf + 0.18u)' nrd='0.18u / W' nrs='0.18u / W' sa=0 sb=0 sd=0 m=1
XM15[16] VDD VDD VDD VDD pfet_03v3 L=6u W=2u nf=1 ad='int((nf+1)/2) * W/nf * 0.18u' as='int((nf+2)/2) * W/nf * 0.18u' pd='2*int((nf+1)/2) * (W/nf + 0.18u)'
+ ps='2*int((nf+2)/2) * (W/nf + 0.18u)' nrd='0.18u / W' nrs='0.18u / W' sa=0 sb=0 sd=0 m=1
XM15[17] VDD VDD VDD VDD pfet_03v3 L=6u W=2u nf=1 ad='int((nf+1)/2) * W/nf * 0.18u' as='int((nf+2)/2) * W/nf * 0.18u' pd='2*int((nf+1)/2) * (W/nf + 0.18u)'
+ ps='2*int((nf+2)/2) * (W/nf + 0.18u)' nrd='0.18u / W' nrs='0.18u / W' sa=0 sb=0 sd=0 m=1
XM15[18] VDD VDD VDD VDD pfet_03v3 L=6u W=2u nf=1 ad='int((nf+1)/2) * W/nf * 0.18u' as='int((nf+2)/2) * W/nf * 0.18u' pd='2*int((nf+1)/2) * (W/nf + 0.18u)'
+ ps='2*int((nf+2)/2) * (W/nf + 0.18u)' nrd='0.18u / W' nrs='0.18u / W' sa=0 sb=0 sd=0 m=1
.ends


* expanding   symbol:  Folded/FC_nfets.sym # of pins=7
** sym_path: /home/lci-ufsc/Desktop/Bracolin/TIA_Filter/Folded/FC_nfets.sym
** sch_path: /home/lci-ufsc/Desktop/Bracolin/TIA_Filter/Folded/FC_nfets.sch
.subckt FC_nfets S1 S2 D1 D2 G1 G2 B
*.PININFO S1:B S2:B D1:B D2:B G1:B G2:B B:B
XM1[1] D1 G1 S1 B nfet_03v3 L=2u W=2u nf=1 ad='int((nf+1)/2) * W/nf * 0.18u' as='int((nf+2)/2) * W/nf * 0.18u' pd='2*int((nf+1)/2) * (W/nf + 0.18u)'
+ ps='2*int((nf+2)/2) * (W/nf + 0.18u)' nrd='0.18u / W' nrs='0.18u / W' sa=0 sb=0 sd=0 m=1
XM1[2] D1 G1 S1 B nfet_03v3 L=2u W=2u nf=1 ad='int((nf+1)/2) * W/nf * 0.18u' as='int((nf+2)/2) * W/nf * 0.18u' pd='2*int((nf+1)/2) * (W/nf + 0.18u)'
+ ps='2*int((nf+2)/2) * (W/nf + 0.18u)' nrd='0.18u / W' nrs='0.18u / W' sa=0 sb=0 sd=0 m=1
XM1[3] D1 G1 S1 B nfet_03v3 L=2u W=2u nf=1 ad='int((nf+1)/2) * W/nf * 0.18u' as='int((nf+2)/2) * W/nf * 0.18u' pd='2*int((nf+1)/2) * (W/nf + 0.18u)'
+ ps='2*int((nf+2)/2) * (W/nf + 0.18u)' nrd='0.18u / W' nrs='0.18u / W' sa=0 sb=0 sd=0 m=1
XM1[4] D1 G1 S1 B nfet_03v3 L=2u W=2u nf=1 ad='int((nf+1)/2) * W/nf * 0.18u' as='int((nf+2)/2) * W/nf * 0.18u' pd='2*int((nf+1)/2) * (W/nf + 0.18u)'
+ ps='2*int((nf+2)/2) * (W/nf + 0.18u)' nrd='0.18u / W' nrs='0.18u / W' sa=0 sb=0 sd=0 m=1
XM1[5] D1 G1 S1 B nfet_03v3 L=2u W=2u nf=1 ad='int((nf+1)/2) * W/nf * 0.18u' as='int((nf+2)/2) * W/nf * 0.18u' pd='2*int((nf+1)/2) * (W/nf + 0.18u)'
+ ps='2*int((nf+2)/2) * (W/nf + 0.18u)' nrd='0.18u / W' nrs='0.18u / W' sa=0 sb=0 sd=0 m=1
XM1[6] D1 G1 S1 B nfet_03v3 L=2u W=2u nf=1 ad='int((nf+1)/2) * W/nf * 0.18u' as='int((nf+2)/2) * W/nf * 0.18u' pd='2*int((nf+1)/2) * (W/nf + 0.18u)'
+ ps='2*int((nf+2)/2) * (W/nf + 0.18u)' nrd='0.18u / W' nrs='0.18u / W' sa=0 sb=0 sd=0 m=1
XM1[7] D1 G1 S1 B nfet_03v3 L=2u W=2u nf=1 ad='int((nf+1)/2) * W/nf * 0.18u' as='int((nf+2)/2) * W/nf * 0.18u' pd='2*int((nf+1)/2) * (W/nf + 0.18u)'
+ ps='2*int((nf+2)/2) * (W/nf + 0.18u)' nrd='0.18u / W' nrs='0.18u / W' sa=0 sb=0 sd=0 m=1
XM1[8] D1 G1 S1 B nfet_03v3 L=2u W=2u nf=1 ad='int((nf+1)/2) * W/nf * 0.18u' as='int((nf+2)/2) * W/nf * 0.18u' pd='2*int((nf+1)/2) * (W/nf + 0.18u)'
+ ps='2*int((nf+2)/2) * (W/nf + 0.18u)' nrd='0.18u / W' nrs='0.18u / W' sa=0 sb=0 sd=0 m=1
XM1[9] D1 G1 S1 B nfet_03v3 L=2u W=2u nf=1 ad='int((nf+1)/2) * W/nf * 0.18u' as='int((nf+2)/2) * W/nf * 0.18u' pd='2*int((nf+1)/2) * (W/nf + 0.18u)'
+ ps='2*int((nf+2)/2) * (W/nf + 0.18u)' nrd='0.18u / W' nrs='0.18u / W' sa=0 sb=0 sd=0 m=1
XM1[10] D1 G1 S1 B nfet_03v3 L=2u W=2u nf=1 ad='int((nf+1)/2) * W/nf * 0.18u' as='int((nf+2)/2) * W/nf * 0.18u' pd='2*int((nf+1)/2) * (W/nf + 0.18u)'