** sch_path: /home/lci-ufsc/Desktop/Bracolin/TIA_Filter/Filter_TOP.sch
.subckt Filter_TOP IN_POS IN_NEG VCM OUT VDD VSS I1N I1U IBNOUT IBPOUT
*.PININFO IN_POS:B IN_NEG:B I1N:B I1U:B VCM:B OUT:B IBNOUT:B IBPOUT:B VDD:B VSS:B
C1 net1 OUT 1.9208e-13 cap_mim_2f0_m4m5_noshield A=96.04P P=39.2U
C2 net2 VCM 1.9208e-13 cap_mim_2f0_m4m5_noshield A=96.04P P=39.2U
C3 IN_POS net2 2e-11 cap_mim_2f0_m4m5_noshield A=10000P P=400U
C4 IN_NEG net1 2e-11 cap_mim_2f0_m4m5_noshield A=10000P P=400U
x2 net2 net1 OUT net3 VDD VSS FoldedCascode
x3 I1U net3 VSS CM_iref
x1 I1N net1 net2 VCM OUT IBNOUT IBPOUT VDD VSS PR_CM_net
.ends

* expanding   symbol:  Folded/FoldedCascode.sym # of pins=6
** sym_path: /home/lci-ufsc/Desktop/Bracolin/TIA_Filter/Folded/FoldedCascode.sym
** sch_path: /home/lci-ufsc/Desktop/Bracolin/TIA_Filter/Folded/FoldedCascode.sch
.subckt FoldedCascode VP VN vout IREF AVDD AVSS
*.PININFO AVDD:B AVSS:B vout:B VP:B VN:B IREF:B
x7 v2 v1 M3_D vout vb3 vb3 AVSS FC_nfets
x5 AVSS AVSS v2 v1 vb2 vb2 AVSS FC_nfets_x2
x1 AVDD AVDD net1 net1 IREF IREF AVDD FC_pfets_x4
x2 net1 net1 v2 v1 VP VN AVDD FC_pfets_x4
x3 net2 net3 M3_D vout vb4 vb4 AVDD FC_pfets_x4
x4 AVDD AVDD net2 net3 M3_D M3_D AVDD FC_pfets_x4
x11 IREF IREF vb2 vb3 vb4 AVDD AVSS FC_bias_net
.ends


* expanding   symbol:  CurrentMirrors/CM_iref.sym # of pins=3
** sym_path: /home/lci-ufsc/Desktop/Bracolin/TIA_Filter/CurrentMirrors/CM_iref.sym
** sch_path: /home/lci-ufsc/Desktop/Bracolin/TIA_Filter/CurrentMirrors/CM_iref.sch
.subckt CM_iref ISBCS2 IREF VSS
*.PININFO ISBCS2:B IREF:B VSS:B
M6 ISBCS2 ISBCS2 VSS VSS nfet_03v3 L=6u W=2u nf=1 m=1
M5 IREF ISBCS2 net3 VSS nfet_03v3 L=6u W=2u nf=1 m=1
M1 net3 ISBCS2 net2 VSS nfet_03v3 L=6u W=2u nf=1 m=1
M2 net2 ISBCS2 net1 VSS nfet_03v3 L=6u W=2u nf=1 m=1
M3 net1 ISBCS2 net4 VSS nfet_03v3 L=6u W=2u nf=1 m=1
M4 net4 ISBCS2 VSS VSS nfet_03v3 L=6u W=2u nf=1 m=1
M7[1] VSS VSS VSS VSS nfet_03v3 L=6u W=2u nf=1 m=1
M7[2] VSS VSS VSS VSS nfet_03v3 L=6u W=2u nf=1 m=1
M7[3] VSS VSS VSS VSS nfet_03v3 L=6u W=2u nf=1 m=1
M7[4] VSS VSS VSS VSS nfet_03v3 L=6u W=2u nf=1 m=1
M7[5] VSS VSS VSS VSS nfet_03v3 L=6u W=2u nf=1 m=1
M7[6] VSS VSS VSS VSS nfet_03v3 L=6u W=2u nf=1 m=1
M7[7] VSS VSS VSS VSS nfet_03v3 L=6u W=2u nf=1 m=1
M7[8] VSS VSS VSS VSS nfet_03v3 L=6u W=2u nf=1 m=1
M7[9] VSS VSS VSS VSS nfet_03v3 L=6u W=2u nf=1 m=1
M7[10] VSS VSS VSS VSS nfet_03v3 L=6u W=2u nf=1 m=1
M7[11] VSS VSS VSS VSS nfet_03v3 L=6u W=2u nf=1 m=1
M7[12] VSS VSS VSS VSS nfet_03v3 L=6u W=2u nf=1 m=1
M7[13] VSS VSS VSS VSS nfet_03v3 L=6u W=2u nf=1 m=1
M7[14] VSS VSS VSS VSS nfet_03v3 L=6u W=2u nf=1 m=1
M7[15] VSS VSS VSS VSS nfet_03v3 L=6u W=2u nf=1 m=1
M7[16] VSS VSS VSS VSS nfet_03v3 L=6u W=2u nf=1 m=1
M7[17] VSS VSS VSS VSS nfet_03v3 L=6u W=2u nf=1 m=1
M7[18] VSS VSS VSS VSS nfet_03v3 L=6u W=2u nf=1 m=1
.ends


* expanding   symbol:  PR_CM_net.sym # of pins=9
** sym_path: /home/lci-ufsc/Desktop/Bracolin/TIA_Filter/PR_CM_net.sym
** sch_path: /home/lci-ufsc/Desktop/Bracolin/TIA_Filter/PR_CM_net.sch
.subckt PR_CM_net ISBCS A1 A2 B2 B1 CMOUTN CMOUTP VDD VSS
*.PININFO ISBCS:B A2:B B2:B A1:B B1:B CMOUTN:B CMOUTP:B VDD:B VSS:B
x9 net1 net3 net4 net5 net12 net6 net7 net8 net9 net10 net11 CMOUTN VSS VSS CM_n_net
x10 net2 net13 net14 net15 net16 net17 net18 net19 net20 net21 net22 CMOUTP VDD VDD CM_p_net
x11 A1 B1 net6 net5 net3 net10 net8 net17 net15 net19 net13 net21 net7 net4 net11 net12 net9 net22 net16 net14 net20 net18 VDD VSS
+ PRbiased_net_x5
x12 net23 net2 net24 net1 ISBCS VDD VSS CM_input
x1 net23 net35 net36 net37 net38 net39 net40 net41 net42 net43 net44 VDD VDD VDD CM_p_net
x2 net24 net25 net26 net27 net28 net29 net30 net31 net32 net33 net34 VSS VSS VSS CM_n_net
x3 A2 B2 net29 net27 net25 net33 net31 net39 net37 net41 net35 net43 net30 net26 net34 net28 net32 net44 net38 net36 net42 net40
+ VDD VSS PRbiased_net_x5
.ends


* expanding   symbol:  Folded/FC_nfets.sym # of pins=7
** sym_path: /home/lci-ufsc/Desktop/Bracolin/TIA_Filter/Folded/FC_nfets.sym
** sch_path: /home/lci-ufsc/Desktop/Bracolin/TIA_Filter/Folded/FC_nfets.sch
.subckt FC_nfets S1 S2 D1 D2 G1 G2 B
*.PININFO S1:B S2:B D1:B D2:B G1:B G2:B B:B
M1[1] D1 G1 S1 B nfet_03v3 L=2u W=2u nf=1 m=1
M1[2] D1 G1 S1 B nfet_03v3 L=2u W=2u nf=1 m=1
M1[3] D1 G1 S1 B nfet_03v3 L=2u W=2u nf=1 m=1
M1[4] D1 G1 S1 B nfet_03v3 L=2u W=2u nf=1 m=1
M1[5] D1 G1 S1 B nfet_03v3 L=2u W=2u nf=1 m=1
M1[6] D1 G1 S1 B nfet_03v3 L=2u W=2u nf=1 m=1
M1[7] D1 G1 S1 B nfet_03v3 L=2u W=2u nf=1 m=1
M1[8] D1 G1 S1 B nfet_03v3 L=2u W=2u nf=1 m=1
M1[9] D1 G1 S1 B nfet_03v3 L=2u W=2u nf=1 m=1
M1[10] D1 G1 S1 B nfet_03v3 L=2u W=2u nf=1 m=1
M1[11] D1 G1 S1 B nfet_03v3 L=2u W=2u nf=1 m=1
M1[12] D1 G1 S1 B nfet_03v3 L=2u W=2u nf=1 m=1
M1[13] D1 G1 S1 B nfet_03v3 L=2u W=2u nf=1 m=1
M1[14] D1 G1 S1 B nfet_03v3 L=2u W=2u nf=1 m=1
M1[15] D1 G1 S1 B nfet_03v3 L=2u W=2u nf=1 m=1
M1[16] D1 G1 S1 B nfet_03v3 L=2u W=2u nf=1 m=1
M1[17] D1 G1 S1 B nfet_03v3 L=2u W=2u nf=1 m=1
M1[18] D1 G1 S1 B nfet_03v3 L=2u W=2u nf=1 m=1
M2[1] D2 G2 S2 B nfet_03v3 L=2u W=2u nf=1 m=1
M2[2] D2 G2 S2 B nfet_03v3 L=2u W=2u nf=1 m=1
M2[3] D2 G2 S2 B nfet_03v3 L=2u W=2u nf=1 m=1
M2[4] D2 G2 S2 B nfet_03v3 L=2u W=2u nf=1 m=1
M2[5] D2 G2 S2 B nfet_03v3 L=2u W=2u nf=1 m=1
M2[6] D2 G2 S2 B nfet_03v3 L=2u W=2u nf=1 m=1
M2[7] D2 G2 S2 B nfet_03v3 L=2u W=2u nf=1 m=1
M2[8] D2 G2 S2 B nfet_03v3 L=2u W=2u nf=1 m=1
M2[9] D2 G2 S2 B nfet_03v3 L=2u W=2u nf=1 m=1
M2[10] D2 G2 S2 B nfet_03v3 L=2u W=2u nf=1 m=1
M2[11] D2 G2 S2 B nfet_03v3 L=2u W=2u nf=1 m=1
M2[12] D2 G2 S2 B nfet_03v3 L=2u W=2u nf=1 m=1
M2[13] D2 G2 S2 B nfet_03v3 L=2u W=2u nf=1 m=1
M2[14] D2 G2 S2 B nfet_03v3 L=2u W=2u nf=1 m=1
M2[15] D2 G2 S2 B nfet_03v3 L=2u W=2u nf=1 m=1
M2[16] D2 G2 S2 B nfet_03v3 L=2u W=2u nf=1 m=1
M2[17] D2 G2 S2 B nfet_03v3 L=2u W=2u nf=1 m=1
M2[18] D2 G2 S2 B nfet_03v3 L=2u W=2u nf=1 m=1
M3[1] B B B B nfet_03v3 L=2u W=2u nf=1 m=1
M3[2] B B B B nfet_03v3 L=2u W=2u nf=1 m=1
M3[3] B B B B nfet_03v3 L=2u W=2u nf=1 m=1
M3[4] B B B B nfet_03v3 L=2u W=2u nf=1 m=1
M3[5] B B B B nfet_03v3 L=2u W=2u nf=1 m=1
M3[6] B B B B nfet_03v3 L=2u W=2u nf=1 m=1
M3[7] B B B B nfet_03v3 L=2u W=2u nf=1 m=1
M3[8] B B B B nfet_03v3 L=2u W=2u nf=1 m=1
M3[9] B B B B nfet_03v3 L=2u W=2u nf=1 m=1
M3[10] B B B B nfet_03v3 L=2u W=2u nf=1 m=1
M3[11] B B B B nfet_03v3 L=2u W=2u nf=1 m=1
M3[12] B B B B nfet_03v3 L=2u W=2u nf=1 m=1
M3[13] B B B B nfet_03v3 L=2u W=2u nf=1 m=1
M3[14] B B B B nfet_03v3 L=2u W=2u nf=1 m=1
M3[15] B B B B nfet_03v3 L=2u W=2u nf=1 m=1
M3[16] B B B B nfet_03v3 L=2u W=2u nf=1 m=1
M3[17] B B B B nfet_03v3 L=2u W=2u nf=1 m=1
M3[18] B B B B nfet_03v3 L=2u W=2u nf=1 m=1
M3[19] B B B B nfet_03v3 L=2u W=2u nf=1 m=1
M3[20] B B B B nfet_03v3 L=2u W=2u nf=1 m=1
M3[21] B B B B nfet_03v3 L=2u W=2u nf=1 m=1
M3[22] B B B B nfet_03v3 L=2u W=2u nf=1 m=1
M3[23] B B B B nfet_03v3 L=2u W=2u nf=1 m=1
M3[24] B B B B nfet_03v3 L=2u W=2u nf=1 m=1
M3[25] B B B B nfet_03v3 L=2u W=2u nf=1 m=1
M3[26] B B B B nfet_03v3 L=2u W=2u nf=1 m=1
M3[27] B B B B nfet_03v3 L=2u W=2u nf=1 m=1
M3[28] B B B B nfet_03v3 L=2u W=2u nf=1 m=1
M3[29] B B B B nfet_03v3 L=2u W=2u nf=1 m=1
M3[30] B B B B nfet_03v3 L=2u W=2u nf=1 m=1
.ends


* expanding   symbol:  Folded/FC_nfets_x2.sym # of pins=7
** sym_path: /home/lci-ufsc/Desktop/Bracolin/TIA_Filter/Folded/FC_nfets_x2.sym
** sch_path: /home/lci-ufsc/Desktop/Bracolin/TIA_Filter/Folded/FC_nfets_x2.sch
.subckt FC_nfets_x2 S1 S2 D1 D2 G1 G2 B
*.PININFO S1:B S2:B D1:B D2:B G1:B G2:B B:B
x1[1] S1 S2 D1 D2 G1 G2 B FC_nfets
x1[2] S1 S2 D1 D2 G1 G2 B FC_nfets
.ends


* expanding   symbol:  Folded/FC_pfets_x4.sym # of pins=7
** sym_path: /home/lci-ufsc/Desktop/Bracolin/TIA_Filter/Folded/FC_pfets_x4.sym
** sch_path: /home/lci-ufsc/Desktop/Bracolin/TIA_Filter/Folded/FC_pfets_x4.sch
.subckt FC_pfets_x4 S1 S2 D1 D2 G1 G2 B
*.PININFO S1:B S2:B D1:B D2:B G1:B G2:B B:B
x1[1] S1 S2 D1 D2 G1 G2 B FC_pfets
x1[2] S1 S2 D1 D2 G1 G2 B FC_pfets
x1[3] S1 S2 D1 D2 G1 G2 B FC_pfets
x1[4] S1 S2 D1 D2 G1 G2 B FC_pfets
.ends


* expanding   symbol:  Folded/FC_bias_net.sym # of pins=7
** sym_path: /home/lci-ufsc/Desktop/Bracolin/TIA_Filter/Folded/FC_bias_net.sym
** sch_path: /home/lci-ufsc/Desktop/Bracolin/TIA_Filter/Folded/FC_bias_net.sch
.subckt FC_bias_net IREF VB1 VB2 VB3 VB4 VDD VSS
*.PININFO VDD:B VSS:B VB2:B IREF:B VB3:B VB4:B VB1:B
x8 VB3 VSS FC_bias_vb3
x9 VB4 VDD FC_bias_vb4
x10 VB2 VB4 VSS FC_bias_nfets
x1 VB1 VB2 VB3 IREF VDD FC_bias_pfets
.ends


* expanding   symbol:  CurrentMirrors/CM_n_net.sym # of pins=14
** sym_path: /home/lci-ufsc/Desktop/Bracolin/TIA_Filter/CurrentMirrors/CM_n_net.sym
** sch_path: /home/lci-ufsc/Desktop/Bracolin/TIA_Filter/CurrentMirrors/CM_n_net.sch
.subckt CM_n_net IN OUT1 OUT2 OUT3 OUT4 OUT5 OUT6 OUT7 OUT8 OUT9 OUT10 OUT11 OUT12 VSS
*.PININFO IN:B OUT1:B OUT2:B VSS:B OUT3:B OUT4:B OUT5:B OUT6:B OUT7:B OUT8:B OUT9:B OUT10:B OUT11:B OUT12:B
x1 IN OUT1 OUT2 VSS CM_nfets
x2 IN OUT3 OUT4 VSS CM_nfets
x4 IN OUT9 OUT10 VSS CM_nfets
x5 IN OUT7 OUT8 VSS CM_nfets
x3 IN OUT5 OUT6 VSS CM_nfets
x7 IN OUT11 OUT12 VSS CM_nfets
.ends


* expanding   symbol:  CurrentMirrors/CM_p_net.sym # of pins=14
** sym_path: /home/lci-ufsc/Desktop/Bracolin/TIA_Filter/CurrentMirrors/CM_p_net.sym
** sch_path: /home/lci-ufsc/Desktop/Bracolin/TIA_Filter/CurrentMirrors/CM_p_net.sch
.subckt CM_p_net IN OUT1 OUT2 OUT3 OUT4 OUT5 OUT6 OUT7 OUT8 OUT9 OUT10 OUT11 OUT12 VDD
*.PININFO IN:B OUT1:B OUT2:B VDD:B OUT3:B OUT4:B OUT5:B OUT6:B OUT7:B OUT8:B OUT9:B OUT10:B OUT11:B OUT12:B
x1 IN OUT1 OUT2 VDD CM_pfets
x2 IN OUT3 OUT4 VDD CM_pfets
x3 IN OUT5 OUT6 VDD CM_pfets
x4 IN OUT7 OUT8 VDD CM_pfets
x5 IN OUT9 OUT10 VDD CM_pfets
x6 IN OUT11 OUT12 VDD CM_pfets
.ends


* expanding   symbol:  PseudoResistor/PRbiased_net_x5.sym # of pins=24
** sym_path: /home/lci-ufsc/Desktop/Bracolin/TIA_Filter/PseudoResistor/PRbiased_net_x5.sym
** sch_path: /home/lci-ufsc/Desktop/Bracolin/TIA_Filter/PseudoResistor/PRbiased_net_x5.sch
.subckt PRbiased_net_x5 VA VB IBN3 IBN2 IBN1 IBN5 IBN4 IBP3 IBP2 IBP4 IBP1 IBP5 ITN3 ITN1 ITN5 ITN2 ITN4 ITP5 ITP2 ITP1 ITP4 ITP3
+ VDD VSS
*.PININFO VA:B VB:B IBN1:B IBP1:B ITN1:B ITP1:B VDD:B VSS:B IBN2:B IBP2:B ITN2:B ITP2:B IBN3:B IBP3:B ITN3:B ITP3:B IBN4:B IBP4:B
*+ ITN4:B ITP4:B IBN5:B IBP5:B ITN5:B ITP5:B
x1 VA net1 IBN1 IBP1 ITN1 ITP1 VDD VSS PRbiased_net
x2 net1 net2 IBN2 IBP2 ITN2 ITP2 VDD VSS PRbiased_net
x3 net2 net3 IBN3 IBP3 ITN3 ITP3 VDD VSS PRbiased_net
x4 net3 net4 IBN4 IBP4 ITN4 ITP4 VDD VSS PRbiased_net
x5 net4 VB IBN5 IBP5 ITN5 ITP5 VDD VSS PRbiased_net
.ends


* expanding   symbol:  CurrentMirrors/CM_input.sym # of pins=7
** sym_path: /home/lci-ufsc/Desktop/Bracolin/TIA_Filter/CurrentMirrors/CM_input.sym
** sch_path: /home/lci-ufsc/Desktop/Bracolin/TIA_Filter/CurrentMirrors/CM_input.sch
.subckt CM_input IP IP2 IN IN2 ISBCS VDD VSS
*.PININFO IP:B IP2:B IN:B IN2:B ISBCS:B VDD:B VSS:B
M1[1] ISBCS ISBCS net1[1] VSS nfet_03v3 L=6u W=2u nf=1 m=1
M1[2] ISBCS ISBCS net1[0] VSS nfet_03v3 L=6u W=2u nf=1 m=1
M2[1] vgp vgp net5[1] VDD pfet_03v3 L=6u W=2u nf=1 m=1
M2[2] vgp vgp net5[0] VDD pfet_03v3 L=6u W=2u nf=1 m=1
M3[1] net1[1] ISBCS VSS VSS nfet_03v3 L=6u W=2u nf=1 m=1
M3[2] net1[0] ISBCS VSS VSS nfet_03v3 L=6u W=2u nf=1 m=1
M4[1] IP ISBCS net2[1] VSS nfet_03v3 L=6u W=2u nf=1 m=1
M4[2] IP ISBCS net2[0] VSS nfet_03v3 L=6u W=2u nf=1 m=1
M5[1] net2[1] ISBCS VSS VSS nfet_03v3 L=6u W=2u nf=1 m=1
M5[2] net2[0] ISBCS VSS VSS nfet_03v3 L=6u W=2u nf=1 m=1
M6[1] IP2 ISBCS net3[1] VSS nfet_03v3 L=6u W=2u nf=1 m=1
M6[2] IP2 ISBCS net3[0] VSS nfet_03v3 L=6u W=2u nf=1 m=1
M7[1] net3[1] ISBCS VSS VSS nfet_03v3 L=6u W=2u nf=1 m=1
M7[2] net3[0] ISBCS VSS VSS nfet_03v3 L=6u W=2u nf=1 m=1
M8[1] vgp ISBCS net4[1] VSS nfet_03v3 L=6u W=2u nf=1 m=1
M8[2] vgp ISBCS net4[0] VSS nfet_03v3 L=6u W=2u nf=1 m=1
M9[1] net4[1] ISBCS VSS VSS nfet_03v3 L=6u W=2u nf=1 m=1
M9[2] net4[0] ISBCS VSS VSS nfet_03v3 L=6u W=2u nf=1 m=1
M10[1] net5[1] vgp VDD VDD pfet_03v3 L=6u W=2u nf=1 m=1
M10[2] net5[0] vgp VDD VDD pfet_03v3 L=6u W=2u nf=1 m=1
M11[1] IN vgp net6[1] VDD pfet_03v3 L=6u W=2u nf=1 m=1
M11[2] IN vgp net6[0] VDD pfet_03v3 L=6u W=2u nf=1 m=1
M12[1] net6[1] vgp VDD VDD pfet_03v3 L=6u W=2u nf=1 m=1
M12[2] net6[0] vgp VDD VDD pfet_03v3 L=6u W=2u nf=1 m=1
M13[1] IN2 vgp net7[1] VDD pfet_03v3 L=6u W=2u nf=1 m=1
M13[2] IN2 vgp net7[0] VDD pfet_03v3 L=6u W=2u nf=1 m=1
M16[1] net7[1] vgp VDD VDD pfet_03v3 L=6u W=2u nf=1 m=1
M16[2] net7[0] vgp VDD VDD pfet_03v3 L=6u W=2u nf=1 m=1
M14[1] VSS VSS VSS VSS nfet_03v3 L=6u W=2u nf=1 m=1
M14[2] VSS VSS VSS VSS nfet_03v3 L=6u W=2u nf=1 m=1
M14[3] VSS VSS VSS VSS nfet_03v3 L=6u W=2u nf=1 m=1
M14[4] VSS VSS VSS VSS nfet_03v3 L=6u W=2u nf=1 m=1
M14[5] VSS VSS VSS VSS nfet_03v3 L=6u W=2u nf=1 m=1
M14[6] VSS VSS VSS VSS nfet_03v3 L=6u W=2u nf=1 m=1
M14[7] VSS VSS VSS VSS nfet_03v3 L=6u W=2u nf=1 m=1
M14[8] VSS VSS VSS VSS nfet_03v3 L=6u W=2u nf=1 m=1
M14[9] VSS VSS VSS VSS nfet_03v3 L=6u W=2u nf=1 m=1
M14[10] VSS VSS VSS VSS nfet_03v3 L=6u W=2u nf=1 m=1
M14[11] VSS VSS VSS VSS nfet_03v3 L=6u W=2u nf=1 m=1
M14[12] VSS VSS VSS VSS nfet_03v3 L=6u W=2u nf=1 m=1
M14[13] VSS VSS VSS VSS nfet_03v3 L=6u W=2u nf=1 m=1
M14[14] VSS VSS VSS VSS nfet_03v3 L=6u W=2u nf=1 m=1
M14[15] VSS VSS VSS VSS nfet_03v3 L=6u W=2u nf=1 m=1
M14[16] VSS VSS VSS VSS nfet_03v3 L=6u W=2u nf=1 m=1
M14[17] VSS VSS VSS VSS nfet_03v3 L=6u W=2u nf=1 m=1
M14[18] VSS VSS VSS VSS nfet_03v3 L=6u W=2u nf=1 m=1
M14[19] VSS VSS VSS VSS nfet_03v3 L=6u W=2u nf=1 m=1
M14[20] VSS VSS VSS VSS nfet_03v3 L=6u W=2u nf=1 m=1
M15[1] VDD VDD VDD VDD pfet_03v3 L=6u W=2u nf=1 m=1
M15[2] VDD VDD VDD VDD pfet_03v3 L=6u W=2u nf=1 m=1
M15[3] VDD VDD VDD VDD pfet_03v3 L=6u W=2u nf=1 m=1
M15[4] VDD VDD VDD VDD pfet_03v3 L=6u W=2u nf=1 m=1
M15[5] VDD VDD VDD VDD pfet_03v3 L=6u W=2u nf=1 m=1
M15[6] VDD VDD VDD VDD pfet_03v3 L=6u W=2u nf=1 m=1
M15[7] VDD VDD VDD VDD pfet_03v3 L=6u W=2u nf=1 m=1
M15[8] VDD VDD VDD VDD pfet_03v3 L=6u W=2u nf=1 m=1
M15[9] VDD VDD VDD VDD pfet_03v3 L=6u W=2u nf=1 m=1
M15[10] VDD VDD VDD VDD pfet_03v3 L=6u W=2u nf=1 m=1
M15[11] VDD VDD VDD VDD pfet_03v3 L=6u W=2u nf=1 m=1
M15[12] VDD VDD VDD VDD pfet_03v3 L=6u W=2u nf=1 m=1
M15[13] VDD VDD VDD VDD pfet_03v3 L=6u W=2u nf=1 m=1
M15[14] VDD VDD VDD VDD pfet_03v3 L=6u W=2u nf=1 m=1
M15[15] VDD VDD VDD VDD pfet_03v3 L=6u W=2u nf=1 m=1
M15[16] VDD VDD VDD VDD pfet_03v3 L=6u W=2u nf=1 m=1
M15[17] VDD VDD VDD VDD pfet_03v3 L=6u W=2u nf=1 m=1
M15[18] VDD VDD VDD VDD pfet_03v3 L=6u W=2u nf=1 m=1
.ends


* expanding   symbol:  Folded/FC_pfets.sym # of pins=7
** sym_path: /home/lci-ufsc/Desktop/Bracolin/TIA_Filter/Folded/FC_pfets.sym
** sch_path: /home/lci-ufsc/Desktop/Bracolin/TIA_Filter/Folded/FC_pfets.sch
.subckt FC_pfets S1 S2 D1 D2 G1 G2 B
*.PININFO S1:B S2:B D1:B D2:B G1:B G2:B B:B
M1[1] D1 G1 S1 B pfet_03v3 L=2u W=2u nf=1 m=1
M1[2] D1 G1 S1 B pfet_03v3 L=2u W=2u nf=1 m=1
M1[3] D1 G1 S1 B pfet_03v3 L=2u W=2u nf=1 m=1
M1[4] D1 G1 S1 B pfet_03v3 L=2u W=2u nf=1 m=1
M1[5] D1 G1 S1 B pfet_03v3 L=2u W=2u nf=1 m=1
M1[6] D1 G1 S1 B pfet_03v3 L=2u W=2u nf=1 m=1
M1[7] D1 G1 S1 B pfet_03v3 L=2u W=2u nf=1 m=1
M1[8] D1 G1 S1 B pfet_03v3 L=2u W=2u nf=1 m=1
M1[9] D1 G1 S1 B pfet_03v3 L=2u W=2u nf=1 m=1
M1[10] D1 G1 S1 B pfet_03v3 L=2u W=2u nf=1 m=1
M1[11] D1 G1 S1 B pfet_03v3 L=2u W=2u nf=1 m=1
M1[12] D1 G1 S1 B pfet_03v3 L=2u W=2u nf=1 m=1
M1[13] D1 G1 S1 B pfet_03v3 L=2u W=2u nf=1 m=1
M1[14] D1 G1 S1 B pfet_03v3 L=2u W=2u nf=1 m=1
M1[15] D1 G1 S1 B pfet_03v3 L=2u W=2u nf=1 m=1
M1[16] D1 G1 S1 B pfet_03v3 L=2u W=2u nf=1 m=1
M1[17] D1 G1 S1 B pfet_03v3 L=2u W=2u nf=1 m=1
M1[18] D1 G1 S1 B pfet_03v3 L=2u W=2u nf=1 m=1
M1[19] D1 G1 S1 B pfet_03v3 L=2u W=2u nf=1 m=1
M1[20] D1 G1 S1 B pfet_03v3 L=2u W=2u nf=1 m=1
M1[21] D1 G1 S1 B pfet_03v3 L=2u W=2u nf=1 m=1
M1[22] D1 G1 S1 B pfet_03v3 L=2u W=2u nf=1 m=1
M2[1] D2 G2 S2 B pfet_03v3 L=2u W=2u nf=1 m=1
M2[2] D2 G2 S2 B pfet_03v3 L=2u W=2u nf=1 m=1
M2[3] D2 G2 S2 B pfet_03v3 L=2u W=2u nf=1 m=1
M2[4] D2 G2 S2 B pfet_03v3 L=2u W=2u nf=1 m=1
M2[5] D2 G2 S2 B pfet_03v3 L=2u W=2u nf=1 m=1
M2[6] D2 G2 S2 B pfet_03v3 L=2u W=2u nf=1 m=1
M2[7] D2 G2 S2 B pfet_03v3 L=2u W=2u nf=1 m=1
M2[8] D2 G2 S2 B pfet_03v3 L=2u W=2u nf=1 m=1
M2[9] D2 G2 S2 B pfet_03v3 L=2u W=2u nf=1 m=1
M2[10] D2 G2 S2 B pfet_03v3 L=2u W=2u nf=1 m=1
M2[11] D2 G2 S2 B pfet_03v3 L=2u W=2u nf=1 m=1
M2[12] D2 G2 S2 B pfet_03v3 L=2u W=2u nf=1 m=1
M2[13] D2 G2 S2 B pfet_03v3 L=2u W=2u nf=1 m=1
M2[14] D2 G2 S2 B pfet_03v3 L=2u W=2u nf=1 m=1
M2[15] D2 G2 S2 B pfet_03v3 L=2u W=2u nf=1 m=1
M2[16] D2 G2 S2 B pfet_03v3 L=2u W=2u nf=1 m=1
M2[17] D2 G2 S2 B pfet_03v3 L=2u W=2u nf=1 m=1
M2[18] D2 G2 S2 B pfet_03v3 L=2u W=2u nf=1 m=1
M2[19] D2 G2 S2 B pfet_03v3 L=2u W=2u nf=1 m=1
M2[20] D2 G2 S2 B pfet_03v3 L=2u W=2u nf=1 m=1
M2[21] D2 G2 S2 B pfet_03v3 L=2u W=2u nf=1 m=1
M2[22] D2 G2 S2 B pfet_03v3 L=2u W=2u nf=1 m=1
M3[1] B B B B pfet_03v3 L=2u W=2u nf=1 m=1
M3[2] B B B B pfet_03v3 L=2u W=2u nf=1 m=1
M3[3] B B B B pfet_03v3 L=2u W=2u nf=1 m=1
M3[4] B B B B pfet_03v3 L=2u W=2u nf=1 m=1
M3[5] B B B B pfet_03v3 L=2u W=2u nf=1 m=1
M3[6] B B B B pfet_03v3 L=2u W=2u nf=1 m=1
M3[7] B B B B pfet_03v3 L=2u W=2u nf=1 m=1
M3[8] B B B B pfet_03v3 L=2u W=2u nf=1 m=1
M3[9] B B B B pfet_03v3 L=2u W=2u nf=1 m=1
M3[10] B B B B pfet_03v3 L=2u W=2u nf=1 m=1
M3[11] B B B B pfet_03v3 L=2u W=2u nf=1 m=1
M3[12] B B B B pfet_03v3 L=2u W=2u nf=1 m=1
M3[13] B B B B pfet_03v3 L=2u W=2u nf=1 m=1
M3[14] B B B B pfet_03v3 L=2u W=2u nf=1 m=1
M3[15] B B B B pfet_03v3 L=2u W=2u nf=1 m=1
M3[16] B B B B pfet_03v3 L=2u W=2u nf=1 m=1
M3[17] B B B B pfet_03v3 L=2u W=2u nf=1 m=1
M3[18] B B B B pfet_03v3 L=2u W=2u nf=1 m=1
M3[19] B B B B pfet_03v3 L=2u W=2u nf=1 m=1
M3[20] B B B B pfet_03v3 L=2u W=2u nf=1 m=1
M3[21] B B B B pfet_03v3 L=2u W=2u nf=1 m=1
M3[22] B B B B pfet_03v3 L=2u W=2u nf=1 m=1
M3[23] B B B B pfet_03v3 L=2u W=2u nf=1 m=1
M3[24] B B B B pfet_03v3 L=2u W=2u nf=1 m=1
M3[25] B B B B pfet_03v3 L=2u W=2u nf=1 m=1
M3[26] B B B B pfet_03v3 L=2u W=2u nf=1 m=1
M3[27] B B B B pfet_03v3 L=2u W=2u nf=1 m=1
M3[28] B B B B pfet_03v3 L=2u W=2u nf=1 m=1
M3[29] B B B B pfet_03v3 L=2u W=2u nf=1 m=1
M3[30] B B B B pfet_03v3 L=2u W=2u nf=1 m=1
M3[31] B B B B pfet_03v3 L=2u W=2u nf=1 m=1
M3[32] B B B B pfet_03v3 L=2u W=2u nf=1 m=1
M3[33] B B B B pfet_03v3 L=2u W=2u nf=1 m=1
M3[34] B B B B pfet_03v3 L=2u W=2u nf=1 m=1
.ends


* expanding   symbol:  Folded/FC_bias_vb3.sym # of pins=2
** sym_path: /home/lci-ufsc/Desktop/Bracolin/TIA_Filter/Folded/FC_bias_vb3.sym
** sch_path: /home/lci-ufsc/Desktop/Bracolin/TIA_Filter/Folded/FC_bias_vb3.sch
.subckt FC_bias_vb3 VB3 VSS
*.PININFO VSS:B VB3:B
M1 VB3 VB3 net1 VSS nfet_03v3 L=2u W=1.2u nf=1 m=1
M2 net1 VB3 net3 VSS nfet_03v3 L=2u W=1.2u nf=1 m=1
M18 net3 VB3 net2 VSS nfet_03v3 L=2u W=1.2u nf=1 m=1
M19 net2 VB3 net5 VSS nfet_03v3 L=2u W=1.2u nf=1 m=1
M20 net5 VB3 net4 VSS nfet_03v3 L=2u W=1.2u nf=1 m=1
M21 net4 VB3 VSS VSS nfet_03v3 L=2u W=1.2u nf=1 m=1
M3[1] VSS VSS VSS VSS nfet_03v3 L=2u W=1.2u nf=1 m=1
M3[2] VSS VSS VSS VSS nfet_03v3 L=2u W=1.2u nf=1 m=1
M3[3] VSS VSS VSS VSS nfet_03v3 L=2u W=1.2u nf=1 m=1
M3[4] VSS VSS VSS VSS nfet_03v3 L=2u W=1.2u nf=1 m=1
M3[5] VSS VSS VSS VSS nfet_03v3 L=2u W=1.2u nf=1 m=1
M3[6] VSS VSS VSS VSS nfet_03v3 L=2u W=1.2u nf=1 m=1
M3[7] VSS VSS VSS VSS nfet_03v3 L=2u W=1.2u nf=1 m=1
M3[8] VSS VSS VSS VSS nfet_03v3 L=2u W=1.2u nf=1 m=1
M3[9] VSS VSS VSS VSS nfet_03v3 L=2u W=1.2u nf=1 m=1
M3[10] VSS VSS VSS VSS nfet_03v3 L=2u W=1.2u nf=1 m=1
M3[11] VSS VSS VSS VSS nfet_03v3 L=2u W=1.2u nf=1 m=1
M3[12] VSS VSS VSS VSS nfet_03v3 L=2u W=1.2u nf=1 m=1
M3[13] VSS VSS VSS VSS nfet_03v3 L=2u W=1.2u nf=1 m=1
M3[14] VSS VSS VSS VSS nfet_03v3 L=2u W=1.2u nf=1 m=1
.ends


* expanding   symbol:  Folded/FC_bias_vb4.sym # of pins=2
** sym_path: /home/lci-ufsc/Desktop/Bracolin/TIA_Filter/Folded/FC_bias_vb4.sym
** sch_path: /home/lci-ufsc/Desktop/Bracolin/TIA_Filter/Folded/FC_bias_vb4.sch
.subckt FC_bias_vb4 VB4 VDD
*.PININFO VDD:B VB4:B
M3 net1 VB4 VDD VDD pfet_03v3 L=2u W=1.2u nf=1 m=1
M4 net3 VB4 net1 VDD pfet_03v3 L=2u W=1.2u nf=1 m=1
M5 net2 VB4 net3 VDD pfet_03v3 L=2u W=1.2u nf=1 m=1
M6 net7 VB4 net2 VDD pfet_03v3 L=2u W=1.2u nf=1 m=1
M7 net4 VB4 net7 VDD pfet_03v3 L=2u W=1.2u nf=1 m=1
M8 net6 VB4 net4 VDD pfet_03v3 L=2u W=1.2u nf=1 m=1
M9 net5 VB4 net6 VDD pfet_03v3 L=2u W=1.2u nf=1 m=1
M10 net8 VB4 net5 VDD pfet_03v3 L=2u W=1.2u nf=1 m=1
M11 net12 VB4 net8 VDD pfet_03v3 L=2u W=1.2u nf=1 m=1
M12 net9 VB4 net12 VDD pfet_03v3 L=2u W=1.2u nf=1 m=1
M13 net11 VB4 net9 VDD pfet_03v3 L=2u W=1.2u nf=1 m=1
M14 net10 VB4 net11 VDD pfet_03v3 L=2u W=1.2u nf=1 m=1
M17 VB4 VB4 net10 VDD pfet_03v3 L=2u W=1.2u nf=1 m=1
M1[1] VDD VDD VDD VDD pfet_03v3 L=2u W=1.2u nf=1 m=1
M1[2] VDD VDD VDD VDD pfet_03v3 L=2u W=1.2u nf=1 m=1
M1[3] VDD VDD VDD VDD pfet_03v3 L=2u W=1.2u nf=1 m=1
M1[4] VDD VDD VDD VDD pfet_03v3 L=2u W=1.2u nf=1 m=1
M1[5] VDD VDD VDD VDD pfet_03v3 L=2u W=1.2u nf=1 m=1
M1[6] VDD VDD VDD VDD pfet_03v3 L=2u W=1.2u nf=1 m=1
M1[7] VDD VDD VDD VDD pfet_03v3 L=2u W=1.2u nf=1 m=1
M1[8] VDD VDD VDD VDD pfet_03v3 L=2u W=1.2u nf=1 m=1
M1[9] VDD VDD VDD VDD pfet_03v3 L=2u W=1.2u nf=1 m=1
M1[10] VDD VDD VDD VDD pfet_03v3 L=2u W=1.2u nf=1 m=1
M1[11] VDD VDD VDD VDD pfet_03v3 L=2u W=1.2u nf=1 m=1
M1[12] VDD VDD VDD VDD pfet_03v3 L=2u W=1.2u nf=1 m=1
M1[13] VDD VDD VDD VDD pfet_03v3 L=2u W=1.2u nf=1 m=1
M1[14] VDD VDD VDD VDD pfet_03v3 L=2u W=1.2u nf=1 m=1
M1[15] VDD VDD VDD VDD pfet_03v3 L=2u W=1.2u nf=1 m=1
M1[16] VDD VDD VDD VDD pfet_03v3 L=2u W=1.2u nf=1 m=1
M1[17] VDD VDD VDD VDD pfet_03v3 L=2u W=1.2u nf=1 m=1
M1[18] VDD VDD VDD VDD pfet_03v3 L=2u W=1.2u nf=1 m=1
M1[19] VDD VDD VDD VDD pfet_03v3 L=2u W=1.2u nf=1 m=1
M1[20] VDD VDD VDD VDD pfet_03v3 L=2u W=1.2u nf=1 m=1
M1[21] VDD VDD VDD VDD pfet_03v3 L=2u W=1.2u nf=1 m=1
M1[22] VDD VDD VDD VDD pfet_03v3 L=2u W=1.2u nf=1 m=1
M1[23] VDD VDD VDD VDD pfet_03v3 L=2u W=1.2u nf=1 m=1
.ends


* expanding   symbol:  Folded/FC_bias_nfets.sym # of pins=3
** sym_path: /home/lci-ufsc/Desktop/Bracolin/TIA_Filter/Folded/FC_bias_nfets.sym
** sch_path: /home/lci-ufsc/Desktop/Bracolin/TIA_Filter/Folded/FC_bias_nfets.sch
.subckt FC_bias_nfets VB2 VB4 VSS
*.PININFO VB4:B VB2:B VSS:B
M17[1] VB2 VB2 VSS VSS nfet_03v3 L=2u W=2.25u nf=1 m=1
M17[2] VB2 VB2 VSS VSS nfet_03v3 L=2u W=2.25u nf=1 m=1
M17[3] VB2 VB2 VSS VSS nfet_03v3 L=2u W=2.25u nf=1 m=1
M17[4] VB2 VB2 VSS VSS nfet_03v3 L=2u W=2.25u nf=1 m=1
M12[1] VB4 VB2 VSS VSS nfet_03v3 L=2u W=2.25u nf=1 m=1
M12[2] VB4 VB2 VSS VSS nfet_03v3 L=2u W=2.25u nf=1 m=1
M12[3] VB4 VB2 VSS VSS nfet_03v3 L=2u W=2.25u nf=1 m=1
M12[4] VB4 VB2 VSS VSS nfet_03v3 L=2u W=2.25u nf=1 m=1
M1[1] VSS VSS VSS VSS nfet_03v3 L=2u W=2.25u nf=1 m=1
M1[2] VSS VSS VSS VSS nfet_03v3 L=2u W=2.25u nf=1 m=1
M1[3] VSS VSS VSS VSS nfet_03v3 L=2u W=2.25u nf=1 m=1
M1[4] VSS VSS VSS VSS nfet_03v3 L=2u W=2.25u nf=1 m=1
M1[5] VSS VSS VSS VSS nfet_03v3 L=2u W=2.25u nf=1 m=1
M1[6] VSS VSS VSS VSS nfet_03v3 L=2u W=2.25u nf=1 m=1
M1[7] VSS VSS VSS VSS nfet_03v3 L=2u W=2.25u nf=1 m=1
M1[8] VSS VSS VSS VSS nfet_03v3 L=2u W=2.25u nf=1 m=1
M1[9] VSS VSS VSS VSS nfet_03v3 L=2u W=2.25u nf=1 m=1
M1[10] VSS VSS VSS VSS nfet_03v3 L=2u W=2.25u nf=1 m=1
M1[11] VSS VSS VSS VSS nfet_03v3 L=2u W=2.25u nf=1 m=1
M1[12] VSS VSS VSS VSS nfet_03v3 L=2u W=2.25u nf=1 m=1
M1[13] VSS VSS VSS VSS nfet_03v3 L=2u W=2.25u nf=1 m=1
M1[14] VSS VSS VSS VSS nfet_03v3 L=2u W=2.25u nf=1 m=1
M1[15] VSS VSS VSS VSS nfet_03v3 L=2u W=2.25u nf=1 m=1
M1[16] VSS VSS VSS VSS nfet_03v3 L=2u W=2.25u nf=1 m=1
.ends


* expanding   symbol:  Folded/FC_bias_pfets.sym # of pins=5
** sym_path: /home/lci-ufsc/Desktop/Bracolin/TIA_Filter/Folded/FC_bias_pfets.sym
** sch_path: /home/lci-ufsc/Desktop/Bracolin/TIA_Filter/Folded/FC_bias_pfets.sch
.subckt FC_bias_pfets VB1 VB2 VB3 IREF VDD
*.PININFO IREF:B VDD:B VB1:B VB2:B VB3:B
M13[1] IREF VB1 VDD VDD pfet_03v3 L=2u W=2u nf=1 m=1
M13[2] IREF VB1 VDD VDD pfet_03v3 L=2u W=2u nf=1 m=1
M13[3] IREF VB1 VDD VDD pfet_03v3 L=2u W=2u nf=1 m=1
M13[4] IREF VB1 VDD VDD pfet_03v3 L=2u W=2u nf=1 m=1
M13[5] IREF VB1 VDD VDD pfet_03v3 L=2u W=2u nf=1 m=1
M13[6] IREF VB1 VDD VDD pfet_03v3 L=2u W=2u nf=1 m=1
M13[7] IREF VB1 VDD VDD pfet_03v3 L=2u W=2u nf=1 m=1
M13[8] IREF VB1 VDD VDD pfet_03v3 L=2u W=2u nf=1 m=1
M13[9] IREF VB1 VDD VDD pfet_03v3 L=2u W=2u nf=1 m=1
M13[10] IREF VB1 VDD VDD pfet_03v3 L=2u W=2u nf=1 m=1
M13[11] IREF VB1 VDD VDD pfet_03v3 L=2u W=2u nf=1 m=1
M13[12] IREF VB1 VDD VDD pfet_03v3 L=2u W=2u nf=1 m=1
M13[13] IREF VB1 VDD VDD pfet_03v3 L=2u W=2u nf=1 m=1
M13[14] IREF VB1 VDD VDD pfet_03v3 L=2u W=2u nf=1 m=1
M13[15] IREF VB1 VDD VDD pfet_03v3 L=2u W=2u nf=1 m=1
M13[16] IREF VB1 VDD VDD pfet_03v3 L=2u W=2u nf=1 m=1
M13[17] IREF VB1 VDD VDD pfet_03v3 L=2u W=2u nf=1 m=1
M13[18] IREF VB1 VDD VDD pfet_03v3 L=2u W=2u nf=1 m=1
M13[19] IREF VB1 VDD VDD pfet_03v3 L=2u W=2u nf=1 m=1
M13[20] IREF VB1 VDD VDD pfet_03v3 L=2u W=2u nf=1 m=1
M13[21] IREF VB1 VDD VDD pfet_03v3 L=2u W=2u nf=1 m=1
M13[22] IREF VB1 VDD VDD pfet_03v3 L=2u W=2u nf=1 m=1
M14[1] VB3 VB1 VDD VDD pfet_03v3 L=2u W=2u nf=1 m=1
M14[2] VB3 VB1 VDD VDD pfet_03v3 L=2u W=2u nf=1 m=1
M14[3] VB3 VB1 VDD VDD pfet_03v3 L=2u W=2u nf=1 m=1
M14[4] VB3 VB1 VDD VDD pfet_03v3 L=2u W=2u nf=1 m=1
M14[5] VB3 VB1 VDD VDD pfet_03v3 L=2u W=2u nf=1 m=1
M14[6] VB3 VB1 VDD VDD pfet_03v3 L=2u W=2u nf=1 m=1
M14[7] VB3 VB1 VDD VDD pfet_03v3 L=2u W=2u nf=1 m=1
M14[8] VB3 VB1 VDD VDD pfet_03v3 L=2u W=2u nf=1 m=1
M14[9] VB3 VB1 VDD VDD pfet_03v3 L=2u W=2u nf=1 m=1
M14[10] VB3 VB1 VDD VDD pfet_03v3 L=2u W=2u nf=1 m=1
M14[11] VB3 VB1 VDD VDD pfet_03v3 L=2u W=2u nf=1 m=1
M14[12] VB3 VB1 VDD VDD pfet_03v3 L=2u W=2u nf=1 m=1
M14[13] VB3 VB1 VDD VDD pfet_03v3 L=2u W=2u nf=1 m=1
M14[14] VB3 VB1 VDD VDD pfet_03v3 L=2u W=2u nf=1 m=1
M14[15] VB3 VB1 VDD VDD pfet_03v3 L=2u W=2u nf=1 m=1
M14[16] VB3 VB1 VDD VDD pfet_03v3 L=2u W=2u nf=1 m=1
M14[17] VB3 VB1 VDD VDD pfet_03v3 L=2u W=2u nf=1 m=1
M14[18] VB3 VB1 VDD VDD pfet_03v3 L=2u W=2u nf=1 m=1
M14[19] VB3 VB1 VDD VDD pfet_03v3 L=2u W=2u nf=1 m=1
M14[20] VB3 VB1 VDD VDD pfet_03v3 L=2u W=2u nf=1 m=1
M14[21] VB3 VB1 VDD VDD pfet_03v3 L=2u W=2u nf=1 m=1
M14[22] VB3 VB1 VDD VDD pfet_03v3 L=2u W=2u nf=1 m=1
M15[1] VB2 VB1 VDD VDD pfet_03v3 L=2u W=2u nf=1 m=1
M15[2] VB2 VB1 VDD VDD pfet_03v3 L=2u W=2u nf=1 m=1
M15[3] VB2 VB1 VDD VDD pfet_03v3 L=2u W=2u nf=1 m=1
M15[4] VB2 VB1 VDD VDD pfet_03v3 L=2u W=2u nf=1 m=1
M15[5] VB2 VB1 VDD VDD pfet_03v3 L=2u W=2u nf=1 m=1
M15[6] VB2 VB1 VDD VDD pfet_03v3 L=2u W=2u nf=1 m=1
M15[7] VB2 VB1 VDD VDD pfet_03v3 L=2u W=2u nf=1 m=1
M15[8] VB2 VB1 VDD VDD pfet_03v3 L=2u W=2u nf=1 m=1
M15[9] VB2 VB1 VDD VDD pfet_03v3 L=2u W=2u nf=1 m=1
M15[10] VB2 VB1 VDD VDD pfet_03v3 L=2u W=2u nf=1 m=1
M15[11] VB2 VB1 VDD VDD pfet_03v3 L=2u W=2u nf=1 m=1
M15[12] VB2 VB1 VDD VDD pfet_03v3 L=2u W=2u nf=1 m=1
M15[13] VB2 VB1 VDD VDD pfet_03v3 L=2u W=2u nf=1 m=1
M15[14] VB2 VB1 VDD VDD pfet_03v3 L=2u W=2u nf=1 m=1
M15[15] VB2 VB1 VDD VDD pfet_03v3 L=2u W=2u nf=1 m=1
M15[16] VB2 VB1 VDD VDD pfet_03v3 L=2u W=2u nf=1 m=1
M15[17] VB2 VB1 VDD VDD pfet_03v3 L=2u W=2u nf=1 m=1
M15[18] VB2 VB1 VDD VDD pfet_03v3 L=2u W=2u nf=1 m=1
M15[19] VB2 VB1 VDD VDD pfet_03v3 L=2u W=2u nf=1 m=1
M15[20] VB2 VB1 VDD VDD pfet_03v3 L=2u W=2u nf=1 m=1
M15[21] VB2 VB1 VDD VDD pfet_03v3 L=2u W=2u nf=1 m=1
M15[22] VB2 VB1 VDD VDD pfet_03v3 L=2u W=2u nf=1 m=1
M1[1] VDD VDD VDD VDD pfet_03v3 L=2u W=2u nf=1 m=1
M1[2] VDD VDD VDD VDD pfet_03v3 L=2u W=2u nf=1 m=1
M1[3] VDD VDD VDD VDD pfet_03v3 L=2u W=2u nf=1 m=1
M1[4] VDD VDD VDD VDD pfet_03v3 L=2u W=2u nf=1 m=1
M1[5] VDD VDD VDD VDD pfet_03v3 L=2u W=2u nf=1 m=1
M1[6] VDD VDD VDD VDD pfet_03v3 L=2u W=2u nf=1 m=1
M1[7] VDD VDD VDD VDD pfet_03v3 L=2u W=2u nf=1 m=1
M1[8] VDD VDD VDD VDD pfet_03v3 L=2u W=2u nf=1 m=1
M1[9] VDD VDD VDD VDD pfet_03v3 L=2u W=2u nf=1 m=1
M1[10] VDD VDD VDD VDD pfet_03v3 L=2u W=2u nf=1 m=1
M1[11] VDD VDD VDD VDD pfet_03v3 L=2u W=2u nf=1 m=1
M1[12] VDD VDD VDD VDD pfet_03v3 L=2u W=2u nf=1 m=1
M1[13] VDD VDD VDD VDD pfet_03v3 L=2u W=2u nf=1 m=1
M1[14] VDD VDD VDD VDD pfet_03v3 L=2u W=2u nf=1 m=1
M1[15] VDD VDD VDD VDD pfet_03v3 L=2u W=2u nf=1 m=1
M1[16] VDD VDD VDD VDD pfet_03v3 L=2u W=2u nf=1 m=1
M1[17] VDD VDD VDD VDD pfet_03v3 L=2u W=2u nf=1 m=1
M1[18] VDD VDD VDD VDD pfet_03v3 L=2u W=2u nf=1 m=1
M1[19] VDD VDD VDD VDD pfet_03v3 L=2u W=2u nf=1 m=1
M1[20] VDD VDD VDD VDD pfet_03v3 L=2u W=2u nf=1 m=1
M1[21] VDD VDD VDD VDD pfet_03v3 L=2u W=2u nf=1 m=1
M1[22] VDD VDD VDD VDD pfet_03v3 L=2u W=2u nf=1 m=1
M1[23] VDD VDD VDD VDD pfet_03v3 L=2u W=2u nf=1 m=1
M1[24] VDD VDD VDD VDD pfet_03v3 L=2u W=2u nf=1 m=1
M1[25] VDD VDD VDD VDD pfet_03v3 L=2u W=2u nf=1 m=1
M1[26] VDD VDD VDD VDD pfet_03v3 L=2u W=2u nf=1 m=1
M1[27] VDD VDD VDD VDD pfet_03v3 L=2u W=2u nf=1 m=1
M1[28] VDD VDD VDD VDD pfet_03v3 L=2u W=2u nf=1 m=1
M1[29] VDD VDD VDD VDD pfet_03v3 L=2u W=2u nf=1 m=1
M1[30] VDD VDD VDD VDD pfet_03v3 L=2u W=2u nf=1 m=1
M1[31] VDD VDD VDD VDD pfet_03v3 L=2u W=2u nf=1 m=1
M1[32] VDD VDD VDD VDD pfet_03v3 L=2u W=2u nf=1 m=1
M1[33] VDD VDD VDD VDD pfet_03v3 L=2u W=2u nf=1 m=1
M1[34] VDD VDD VDD VDD pfet_03v3 L=2u W=2u nf=1 m=1
M1[35] VDD VDD VDD VDD pfet_03v3 L=2u W=2u nf=1 m=1
M1[36] VDD VDD VDD VDD pfet_03v3 L=2u W=2u nf=1 m=1
M1[37] VDD VDD VDD VDD pfet_03v3 L=2u W=2u nf=1 m=1
M1[38] VDD VDD VDD VDD pfet_03v3 L=2u W=2u nf=1 m=1
.ends


* expanding   symbol:  CurrentMirrors/CM_nfets.sym # of pins=4
** sym_path: /home/lci-ufsc/Desktop/Bracolin/TIA_Filter/CurrentMirrors/CM_nfets.sym
** sch_path: /home/lci-ufsc/Desktop/Bracolin/TIA_Filter/CurrentMirrors/CM_nfets.sch
.subckt CM_nfets IN OUT1 OUT2 VSS
*.PININFO IN:B OUT1:B OUT2:B VSS:B
M2[1] IN IN VSS VSS nfet_03v3 L=2u W=2u nf=1 m=1
M2[2] IN IN VSS VSS nfet_03v3 L=2u W=2u nf=1 m=1
M2[3] IN IN VSS VSS nfet_03v3 L=2u W=2u nf=1 m=1
M2[4] IN IN VSS VSS nfet_03v3 L=2u W=2u nf=1 m=1
M2[5] IN IN VSS VSS nfet_03v3 L=2u W=2u nf=1 m=1
M2[6] IN IN VSS VSS nfet_03v3 L=2u W=2u nf=1 m=1
M2 OUT1 IN net3 VSS nfet_03v3 L=2u W=2u nf=1 m=1
M11 net4 IN net6 VSS nfet_03v3 L=2u W=2u nf=1 m=1
M12 net6 IN net7 VSS nfet_03v3 L=2u W=2u nf=1 m=1
M13 net7 IN net8 VSS nfet_03v3 L=2u W=2u nf=1 m=1
M14 net8 IN net9 VSS nfet_03v3 L=2u W=2u nf=1 m=1