* NGSPICE file created from Filter_TOP.ext - technology: gf180mcuD

.subckt Filter_TOP VCM IN_POS IN_NEG VSS I1U VDD I1N IBNOUT OUT IBPOUT
X0 VSS.t3632 VSS.t3631 VSS.t3632 VSS.t1104 nfet_03v3 ad=1.22p pd=5.22u as=0 ps=0 w=2u l=2u
X1 a_52635_49681.t175 a_52635_34067.t65 VDD.t4975 VDD.t410 pfet_03v3 ad=1.3p pd=5.3u as=0.84p ps=2.84u w=2u l=2u
X2 VDD.t4744 VDD.t4743 VDD.t4744 VDD.t574 pfet_03v3 ad=1.3p pd=5.3u as=0 ps=0 w=2u l=2u
X3 VDD.t4742 VDD.t4741 VDD.t4742 VDD.t883 pfet_03v3 ad=1.3p pd=5.3u as=0 ps=0 w=2u l=2u
X4 VDD.t4740 VDD.t4739 VDD.t4740 VDD.t886 pfet_03v3 ad=1.3p pd=5.3u as=0 ps=0 w=2u l=2u
X5 VDD.t4738 VDD.t4737 VDD.t4738 VDD.t317 pfet_03v3 ad=1.3p pd=5.3u as=0 ps=0 w=2u l=2u
X6 a_100820_11614.t4 a_57977_n12421.t0 a_102796_6405# VSS.t171 nfet_03v3 ad=1.22p pd=5.22u as=0.8p ps=2.8u w=2u l=2u
X7 a_31284_4481.t2 a_30324_4421.t0 a_30724_6405# VSS.t151 nfet_03v3 ad=1.22p pd=5.22u as=0.8p ps=2.8u w=2u l=2u
X8 VDD.t4736 VDD.t4735 VDD.t4736 VDD.t656 pfet_03v3 ad=1.3p pd=5.3u as=0 ps=0 w=2u l=2u
X9 a_102756_12380# a_100820_10448.t11 VDD.t325 VDD.t298 pfet_03v3 ad=0.84p pd=2.84u as=1.3p ps=5.3u w=2u l=2u
X10 a_36032_n36322.t0 a_53829_n36382.t8 a_55635_n36322# VDD.t297 pfet_03v3 ad=1.3p pd=5.3u as=0.84p ps=2.84u w=2u l=2u
X11 a_33249_35053.t141 a_35502_25545.t28 VSS.t280 VSS.t10 nfet_03v3 ad=0.8p pd=2.8u as=1.22p ps=5.22u w=2u l=2u
X12 VSS.t3630 VSS.t3629 VSS.t3630 VSS.t571 nfet_03v3 ad=0.8p pd=2.8u as=0 ps=0 w=2u l=2u
X13 VSS.t3628 VSS.t3627 VSS.t3628 VSS.t745 nfet_03v3 ad=1.22p pd=5.22u as=0 ps=0 w=2u l=2u
X14 a_101350_10448# a_100820_10448.t9 a_100820_10448.t10 VDD.t321 pfet_03v3 ad=0.84p pd=2.84u as=1.3p ps=5.3u w=2u l=2u
X15 a_52635_49681.t174 a_52635_34067.t66 VDD.t4974 VDD.t413 pfet_03v3 ad=0.84p pd=2.84u as=0.84p ps=2.84u w=2u l=2u
X16 a_38619_n2651# a_31953_n19727.t74 a_38097_n2651# VSS.t96 nfet_03v3 ad=0.8p pd=2.8u as=1.22p ps=5.22u w=2u l=2u
X17 VDD.t4734 VDD.t4733 VDD.t4734 VDD.t839 pfet_03v3 ad=1.3p pd=5.3u as=0 ps=0 w=2u l=2u
X18 VSS.t3626 VSS.t3625 VSS.t3626 VSS.t905 nfet_03v3 ad=0.8p pd=2.8u as=0 ps=0 w=2u l=2u
X19 VSS.t3624 VSS.t3623 VSS.t3624 VSS.t166 nfet_03v3 ad=0.8p pd=2.8u as=0 ps=0 w=2u l=2u
X20 VDD.t45 a_31699_20742.t45 a_35502_24538.t23 VDD.t14 pfet_03v3 ad=0.84p pd=2.84u as=1.3p ps=5.3u w=2u l=2u
X21 VSS.t3622 VSS.t3621 VSS.t3622 VSS.t472 nfet_03v3 ad=1.22p pd=5.22u as=0 ps=0 w=2u l=2u
X22 a_43817_6405# a_41891_4481.t11 VSS.t169 VSS.t158 nfet_03v3 ad=0.8p pd=2.8u as=1.22p ps=5.22u w=2u l=2u
X23 VSS.t3620 VSS.t3619 VSS.t3620 VSS.t453 nfet_03v3 ad=0.8p pd=2.8u as=0 ps=0 w=2u l=2u
X24 VSS.t3618 VSS.t3617 VSS.t3618 VSS.t979 nfet_03v3 ad=0.8p pd=2.8u as=0 ps=0 w=2u l=2u
X25 VDD.t4732 VDD.t4731 VDD.t4732 VDD.t392 pfet_03v3 ad=0.84p pd=2.84u as=0 ps=0 w=2u l=2u
X26 a_105365_n7865# a_71281_n8397.t74 a_104527_n7865# VDD.t429 pfet_03v3 ad=0.84p pd=2.84u as=1.3p ps=5.3u w=2u l=2u
X27 VDD.t46 a_31699_20742.t46 a_35502_25545.t0 VDD.t38 pfet_03v3 ad=0.84p pd=2.84u as=0.84p ps=2.84u w=2u l=2u
X28 a_52635_34067.t0 a_35922_19591.t6 a_52635_48695.t87 VDD.t391 pfet_03v3 ad=1.3p pd=5.3u as=0.84p ps=2.84u w=2u l=2u
X29 a_58851_n7138# a_50751_n19729.t74 a_58329_n8035# VSS.t229 nfet_03v3 ad=0.8p pd=2.8u as=1.22p ps=5.22u w=2u l=2u
X30 a_53145_n19597# a_50751_n19729.t75 a_52585_n19597# VSS.t220 nfet_03v3 ad=1.22p pd=5.22u as=0.8p ps=2.8u w=2u l=2u
X31 a_71864_n30339# a_65486_n36322.t8 a_71342_n30339.t2 VSS.t156 nfet_03v3 ad=0.8p pd=2.8u as=1.22p ps=5.22u w=2u l=2u
X32 VDD.t4730 VDD.t4729 VDD.t4730 VDD.t469 pfet_03v3 ad=1.3p pd=5.3u as=0 ps=0 w=2u l=2u
X33 VSS.t3616 VSS.t3615 VSS.t3616 VSS.t558 nfet_03v3 ad=1.22p pd=5.22u as=0 ps=0 w=2u l=2u
X34 a_106809_n17715.t1 a_71281_n8397.t75 a_106501_n21335# VDD.t468 pfet_03v3 ad=1.3p pd=5.3u as=1.3p ps=5.3u w=2u l=2u
X35 VSS.t3614 VSS.t3613 VSS.t3614 VSS.t98 nfet_03v3 ad=0.8p pd=2.8u as=0 ps=0 w=2u l=2u
X36 VSS.t3612 VSS.t3611 VSS.t3612 VSS.t421 nfet_03v3 ad=1.22p pd=5.22u as=0 ps=0 w=2u l=2u
X37 VDD.t4728 VDD.t4727 VDD.t4728 VDD.t18 pfet_03v3 ad=0.84p pd=2.84u as=0 ps=0 w=2u l=2u
X38 VDD.t4726 VDD.t4725 VDD.t4726 VDD.t70 pfet_03v3 ad=1.3p pd=5.3u as=0 ps=0 w=2u l=2u
X39 a_105933_n2435# a_71281_n8397.t76 a_105365_n2435# VDD.t442 pfet_03v3 ad=0.84p pd=2.84u as=0.84p ps=2.84u w=2u l=2u
X40 VSS.t3610 VSS.t3609 VSS.t3610 VSS.t401 nfet_03v3 ad=0.8p pd=2.8u as=0 ps=0 w=2u l=2u
X41 VDD.t4724 VDD.t4723 VDD.t4724 VDD.t3678 pfet_03v3 ad=1.3p pd=5.3u as=0 ps=0 w=2u l=2u
X42 a_52635_34067.t1 a_35922_19591.t7 a_52635_48695.t86 VDD.t392 pfet_03v3 ad=0.84p pd=2.84u as=0.84p ps=2.84u w=2u l=2u
X43 VDD.t4722 VDD.t4721 VDD.t4722 VDD.t976 pfet_03v3 ad=1.3p pd=5.3u as=0 ps=0 w=2u l=2u
X44 a_33249_48695.t334 a_31699_20742.t47 VDD.t48 VDD.t47 pfet_03v3 ad=1.3p pd=5.3u as=0.84p ps=2.84u w=2u l=2u
X45 VSS.t3608 VSS.t3607 VSS.t3608 VSS.t745 nfet_03v3 ad=1.22p pd=5.22u as=0 ps=0 w=2u l=2u
X46 a_52635_48695.t175 a_52635_34067.t67 VDD.t4973 VDD.t400 pfet_03v3 ad=1.3p pd=5.3u as=0.84p ps=2.84u w=2u l=2u
X47 VSS.t3606 VSS.t3605 VSS.t3606 VSS.t308 nfet_03v3 ad=0.8p pd=2.8u as=0 ps=0 w=2u l=2u
X48 OUT.t107 a_35922_19591.t8 a_52635_49681.t0 VDD.t393 pfet_03v3 ad=1.3p pd=5.3u as=0.84p ps=2.84u w=2u l=2u
X49 VDD.t4720 VDD.t4719 VDD.t4720 VDD.t395 pfet_03v3 ad=1.3p pd=5.3u as=0 ps=0 w=2u l=2u
X50 VDD.t4718 VDD.t4717 VDD.t4718 VDD.t700 pfet_03v3 ad=1.3p pd=5.3u as=0 ps=0 w=2u l=2u
X51 VSS.t3604 VSS.t3603 VSS.t3604 VSS.t947 nfet_03v3 ad=1.22p pd=5.22u as=0 ps=0 w=2u l=2u
X52 VSS.t3602 VSS.t3601 VSS.t3602 VSS.t908 nfet_03v3 ad=1.22p pd=5.22u as=0 ps=0 w=2u l=2u
X53 VSS.t3600 VSS.t3599 VSS.t3600 VSS.t190 nfet_03v3 ad=0.8p pd=2.8u as=0 ps=0 w=2u l=2u
X54 a_33249_48695.t333 a_31699_20742.t48 VDD.t50 VDD.t49 pfet_03v3 ad=1.3p pd=5.3u as=0.84p ps=2.84u w=2u l=2u
X55 VDD.t52 a_31699_20742.t49 a_33249_48695.t332 VDD.t51 pfet_03v3 ad=0.84p pd=2.84u as=0.84p ps=2.84u w=2u l=2u
X56 VDD.t4716 VDD.t4715 VDD.t4716 VDD.t653 pfet_03v3 ad=1.3p pd=5.3u as=0 ps=0 w=2u l=2u
X57 VSS.t3598 VSS.t3597 VSS.t3598 VSS.t1821 nfet_03v3 ad=0.732p pd=3.62u as=0 ps=0 w=1.2u l=2u
X58 a_31284_n30339.t1 a_30324_n30399.t1 a_30724_n30339# VSS.t151 nfet_03v3 ad=1.22p pd=5.22u as=0.8p ps=2.8u w=2u l=2u
X59 VSS.t3596 VSS.t3595 VSS.t3596 VSS.t339 nfet_03v3 ad=1.22p pd=5.22u as=0 ps=0 w=2u l=2u
X60 VDD.t4714 VDD.t4713 VDD.t4714 VDD.t415 pfet_03v3 ad=0.84p pd=2.84u as=0 ps=0 w=2u l=2u
X61 OUT.t106 a_35922_19591.t9 a_52635_49681.t1 VDD.t394 pfet_03v3 ad=0.84p pd=2.84u as=0.84p ps=2.84u w=2u l=2u
X62 a_33249_35053.t88 a_35502_24538.t24 OUT.t19 VSS.t165 nfet_03v3 ad=1.22p pd=5.22u as=0.8p ps=2.8u w=2u l=2u
X63 VDD.t4712 VDD.t4711 VDD.t4712 VDD.t944 pfet_03v3 ad=0.84p pd=2.84u as=0 ps=0 w=2u l=2u
X64 a_38097_n5342.t1 a_100992_n29313.t0 a_101392_n29181# VSS.t332 nfet_03v3 ad=1.22p pd=5.22u as=0.8p ps=2.8u w=2u l=2u
X65 VDD.t467 a_71281_n8397.t70 a_71281_n8397.t71 VDD.t444 pfet_03v3 ad=0.84p pd=2.84u as=0.84p ps=2.84u w=2u l=2u
X66 a_101392_6405# a_100992_4421.t0 a_100820_10448.t0 VSS.t163 nfet_03v3 ad=0.8p pd=2.8u as=1.22p ps=5.22u w=2u l=2u
X67 VDD.t4710 VDD.t4709 VDD.t4710 VDD.t875 pfet_03v3 ad=1.3p pd=5.3u as=0 ps=0 w=2u l=2u
X68 a_52635_48695.t85 a_35922_19591.t10 a_52635_34067.t2 VDD.t395 pfet_03v3 ad=0.84p pd=2.84u as=1.3p ps=5.3u w=2u l=2u
X69 VDD.t54 a_31699_20742.t50 a_33249_48695.t331 VDD.t53 pfet_03v3 ad=0.84p pd=2.84u as=0.84p ps=2.84u w=2u l=2u
X70 VSS.t3594 VSS.t3593 VSS.t3594 VSS.t638 nfet_03v3 ad=1.22p pd=5.22u as=0 ps=0 w=2u l=2u
X71 VDD.t4708 VDD.t4707 VDD.t4708 VDD.t2464 pfet_03v3 ad=1.3p pd=5.3u as=0 ps=0 w=2u l=2u
X72 a_100235_n15000# a_71281_n8397.t77 a_99667_n15000# VDD.t444 pfet_03v3 ad=0.84p pd=2.84u as=0.84p ps=2.84u w=2u l=2u
X73 VDD.t4706 VDD.t4705 VDD.t4706 VDD.t1419 pfet_03v3 ad=0.84p pd=2.84u as=0 ps=0 w=2u l=2u
X74 VSS.t3592 VSS.t3591 VSS.t3592 VSS.t896 nfet_03v3 ad=1.22p pd=5.22u as=0 ps=0 w=2u l=2u
X75 a_73302_13546# a_71496_10388.t8 a_71342_4481.t2 VDD.t363 pfet_03v3 ad=0.84p pd=2.84u as=1.3p ps=5.3u w=2u l=2u
X76 a_30724_6405# a_30324_4421.t0 a_30152_10448.t3 VSS.t150 nfet_03v3 ad=0.8p pd=2.8u as=1.22p ps=5.22u w=2u l=2u
X77 VDD.t4704 VDD.t4703 VDD.t4704 VDD.t976 pfet_03v3 ad=1.3p pd=5.3u as=0 ps=0 w=2u l=2u
X78 VSS.t3590 VSS.t3589 VSS.t3590 VSS.t195 nfet_03v3 ad=1.22p pd=5.22u as=0 ps=0 w=2u l=2u
X79 VDD.t4702 VDD.t4701 VDD.t4702 VDD.t1747 pfet_03v3 ad=1.3p pd=5.3u as=0 ps=0 w=2u l=2u
X80 VDD.t4700 VDD.t4699 VDD.t4700 VDD.t73 pfet_03v3 ad=0.84p pd=2.84u as=0 ps=0 w=2u l=2u
X81 VSS.t3588 VSS.t3587 VSS.t3588 VSS.t650 nfet_03v3 ad=0.8p pd=2.8u as=0 ps=0 w=2u l=2u
X82 a_31831_n5342.t1 a_32913_n8930.t1 a_83725_n28415# VSS.t288 nfet_03v3 ad=1.22p pd=5.22u as=0.8p ps=2.8u w=2u l=2u
X83 a_45445_n18698# a_31953_n19727.t75 a_44885_n17801# VSS.t97 nfet_03v3 ad=1.22p pd=5.22u as=0.8p ps=2.8u w=2u l=2u
X84 VSS.t3586 VSS.t3585 VSS.t3586 VSS.t716 nfet_03v3 ad=1.22p pd=5.22u as=0 ps=0 w=2u l=2u
X85 VDD.t56 a_31699_20742.t51 a_33249_48695.t330 VDD.t55 pfet_03v3 ad=0.84p pd=2.84u as=1.3p ps=5.3u w=2u l=2u
X86 OUT.t105 a_35922_19591.t11 a_52635_49681.t2 VDD.t396 pfet_03v3 ad=0.84p pd=2.84u as=1.3p ps=5.3u w=2u l=2u
X87 VDD.t4698 VDD.t4697 VDD.t4698 VDD.t944 pfet_03v3 ad=0.84p pd=2.84u as=0 ps=0 w=2u l=2u
X88 VSS.t3584 VSS.t3583 VSS.t3584 VSS.t522 nfet_03v3 ad=0.8p pd=2.8u as=0 ps=0 w=2u l=2u
X89 VDD.t4696 VDD.t4695 VDD.t4696 VDD.t309 pfet_03v3 ad=0.84p pd=2.84u as=0 ps=0 w=2u l=2u
X90 VDD.t4694 VDD.t4693 VDD.t4694 VDD.t2447 pfet_03v3 ad=1.3p pd=5.3u as=0 ps=0 w=2u l=2u
X91 VSS.t3582 VSS.t3581 VSS.t3582 VSS.t257 nfet_03v3 ad=1.22p pd=5.22u as=0 ps=0 w=2u l=2u
X92 a_51711_n5344.t1 a_50751_n19729.t76 a_51151_n5344# VSS.t255 nfet_03v3 ad=1.22p pd=5.22u as=0.8p ps=2.8u w=2u l=2u
X93 a_66551_n17803# a_50751_n19729.t77 a_66029_n18700# VSS.t256 nfet_03v3 ad=0.8p pd=2.8u as=1.22p ps=5.22u w=2u l=2u
X94 a_33249_35053.t0 a_33379_34917.t3 a_33249_48695.t14 VDD.t73 pfet_03v3 ad=0.84p pd=2.84u as=0.84p ps=2.84u w=2u l=2u
X95 VSS.t3580 VSS.t3579 VSS.t3580 VSS.t687 nfet_03v3 ad=0.8p pd=2.8u as=0 ps=0 w=2u l=2u
X96 a_33249_35053.t1 a_33379_34917.t4 a_33249_48695.t15 VDD.t82 pfet_03v3 ad=1.3p pd=5.3u as=0.84p ps=2.84u w=2u l=2u
X97 a_98829_n17715# a_71281_n8397.t78 a_98299_n16810# VDD.t469 pfet_03v3 ad=1.3p pd=5.3u as=1.3p ps=5.3u w=2u l=2u
X98 OUT.t104 a_35922_19591.t12 a_52635_49681.t3 VDD.t397 pfet_03v3 ad=1.3p pd=5.3u as=0.84p ps=2.84u w=2u l=2u
X99 VSS.t3578 VSS.t3577 VSS.t3578 VSS.t1537 nfet_03v3 ad=0.8p pd=2.8u as=0 ps=0 w=2u l=2u
X100 a_73302_11614# a_71496_10388.t9 VSS.t3649 VDD.t363 pfet_03v3 ad=0.84p pd=2.84u as=1.3p ps=5.3u w=2u l=2u
X101 a_73268_n29181# a_65486_n36322.t9 a_45445_n19595.t1 VSS.t154 nfet_03v3 ad=0.8p pd=2.8u as=1.22p ps=5.22u w=2u l=2u
X102 a_90245_n6055# a_71281_n10073.t74 a_60677_10448.t0 VDD.t315 pfet_03v3 ad=1.3p pd=5.3u as=1.3p ps=5.3u w=2u l=2u
X103 VDD.t4692 VDD.t4691 VDD.t4692 VDD.t544 pfet_03v3 ad=1.3p pd=5.3u as=0 ps=0 w=2u l=2u
X104 VSS.t3576 VSS.t3575 VSS.t3576 VSS.t884 nfet_03v3 ad=1.22p pd=5.22u as=0 ps=0 w=2u l=2u
X105 a_98829_n15000# a_71281_n8397.t79 a_98299_n15905# VDD.t469 pfet_03v3 ad=1.3p pd=5.3u as=1.3p ps=5.3u w=2u l=2u
X106 a_51711_n14215# a_50751_n19729.t78 a_51151_n14215# VSS.t255 nfet_03v3 ad=1.22p pd=5.22u as=0.8p ps=2.8u w=2u l=2u
X107 VDD.t4690 VDD.t4689 VDD.t4690 VDD.t616 pfet_03v3 ad=1.3p pd=5.3u as=0 ps=0 w=2u l=2u
X108 VDD.t4688 VDD.t4687 VDD.t4688 VDD.t76 pfet_03v3 ad=0.84p pd=2.84u as=0 ps=0 w=2u l=2u
X109 VSS.t3574 VSS.t3573 VSS.t3574 VSS.t96 nfet_03v3 ad=1.22p pd=5.22u as=0 ps=0 w=2u l=2u
X110 VSS.t3572 VSS.t3571 VSS.t3572 VSS.t472 nfet_03v3 ad=1.22p pd=5.22u as=0 ps=0 w=2u l=2u
X111 a_33249_48695.t350 a_33379_34007.t4 a_33249_34067.t105 VDD.t96 pfet_03v3 ad=0.84p pd=2.84u as=0.84p ps=2.84u w=2u l=2u
X112 VDD.t4686 VDD.t4685 VDD.t4686 VDD.t568 pfet_03v3 ad=0.78p pd=3.7u as=0 ps=0 w=1.2u l=2u
X113 VDD.t4684 VDD.t4683 VDD.t4684 VDD.t930 pfet_03v3 ad=1.3p pd=5.3u as=0 ps=0 w=2u l=2u
X114 a_65486_n35156.t5 a_65486_n35156.t4 a_67422_n36322# VDD.t1 pfet_03v3 ad=1.3p pd=5.3u as=0.84p ps=2.84u w=2u l=2u
X115 a_60285_n2653# a_50751_n19729.t79 a_59763_n3550# VSS.t257 nfet_03v3 ad=0.8p pd=2.8u as=1.22p ps=5.22u w=2u l=2u
X116 a_71281_n8397.t69 a_71281_n8397.t68 VDD.t466 VDD.t429 pfet_03v3 ad=0.84p pd=2.84u as=1.3p ps=5.3u w=2u l=2u
X117 VDD.t4682 VDD.t4681 VDD.t4682 VDD.t1494 pfet_03v3 ad=0.84p pd=2.84u as=0 ps=0 w=2u l=2u
X118 a_105365_n15000# a_71281_n8397.t80 a_104527_n15000# VDD.t429 pfet_03v3 ad=0.84p pd=2.84u as=1.3p ps=5.3u w=2u l=2u
X119 VDD.t4680 VDD.t4679 VDD.t4680 VDD.t878 pfet_03v3 ad=1.3p pd=5.3u as=0 ps=0 w=2u l=2u
X120 a_106676_n30339.t0 a_100820_n36322.t8 a_108602_n27257# VSS.t333 nfet_03v3 ad=1.22p pd=5.22u as=0.8p ps=2.8u w=2u l=2u
X121 VDD.t4678 VDD.t4677 VDD.t4678 VDD.t613 pfet_03v3 ad=1.3p pd=5.3u as=0 ps=0 w=2u l=2u
X122 VSS.t3570 VSS.t3569 VSS.t3570 VSS.t681 nfet_03v3 ad=0.8p pd=2.8u as=0 ps=0 w=2u l=2u
X123 a_40613_n8930# a_31953_n19727.t76 a_40053_n8930# VSS.t56 nfet_03v3 ad=1.22p pd=5.22u as=0.8p ps=2.8u w=2u l=2u
X124 a_33249_48695.t351 a_33379_34007.t5 a_33249_34067.t104 VDD.t66 pfet_03v3 ad=0.84p pd=2.84u as=0.84p ps=2.84u w=2u l=2u
X125 VDD.t4676 VDD.t4675 VDD.t4676 VDD.t351 pfet_03v3 ad=1.3p pd=5.3u as=0 ps=0 w=2u l=2u
X126 VDD.t4674 VDD.t4673 VDD.t4674 VDD.t341 pfet_03v3 ad=0.84p pd=2.84u as=0 ps=0 w=2u l=2u
X127 OUT.t103 a_35922_19591.t13 a_52635_49681.t4 VDD.t392 pfet_03v3 ad=0.84p pd=2.84u as=0.84p ps=2.84u w=2u l=2u
X128 VSS.t3568 VSS.t3567 VSS.t3568 VSS.t834 nfet_03v3 ad=1.22p pd=5.22u as=0 ps=0 w=2u l=2u
X129 VSS.t3566 VSS.t3565 VSS.t3566 VSS.t817 nfet_03v3 ad=1.22p pd=5.22u as=0 ps=0 w=2u l=6u
X130 a_110225_n1530# a_71281_n8397.t81 a_109695_n5150# VDD.t470 pfet_03v3 ad=1.3p pd=5.3u as=1.3p ps=5.3u w=2u l=2u
X131 a_52635_48695.t84 a_35922_19591.t14 a_52635_34067.t3 VDD.t398 pfet_03v3 ad=0.84p pd=2.84u as=1.3p ps=5.3u w=2u l=2u
X132 a_88271_n3340# a_71281_n10073.t75 a_87433_n3340# VDD.t312 pfet_03v3 ad=0.84p pd=2.84u as=1.3p ps=5.3u w=2u l=2u
X133 VDD.t4762 a_83153_11614.t8 a_90935_5639# VSS.t392 nfet_03v3 ad=1.22p pd=5.22u as=0.8p ps=2.8u w=2u l=2u
X134 VDD.t4672 VDD.t4671 VDD.t4672 VDD.t586 pfet_03v3 ad=1.3p pd=5.3u as=0 ps=0 w=2u l=2u
X135 VDD.t4670 VDD.t4669 VDD.t4670 VDD.t317 pfet_03v3 ad=1.3p pd=5.3u as=0 ps=0 w=2u l=2u
X136 VSS.t3564 VSS.t3563 VSS.t3564 VSS.t220 nfet_03v3 ad=0.8p pd=2.8u as=0 ps=0 w=2u l=2u
X137 a_114516_10448# a_86903_n14095.t3 a_89715_n17715.t2 VDD.t335 pfet_03v3 ad=0.84p pd=2.84u as=1.3p ps=5.3u w=2u l=2u
X138 VDD.t4668 VDD.t4667 VDD.t4668 VDD.t400 pfet_03v3 ad=0.84p pd=2.84u as=0 ps=0 w=2u l=2u
X139 a_39179_n8033# a_31953_n19727.t77 a_38619_n8033# VSS.t98 nfet_03v3 ad=1.22p pd=5.22u as=0.8p ps=2.8u w=2u l=2u
X140 VDD.t57 a_31699_20742.t52 a_35502_25545.t1 VDD.t27 pfet_03v3 ad=1.3p pd=5.3u as=0.84p ps=2.84u w=2u l=2u
X141 VSS.t3562 VSS.t3561 VSS.t3562 VSS.t653 nfet_03v3 ad=1.22p pd=5.22u as=0 ps=0 w=2u l=2u
X142 VDD.t4666 VDD.t4665 VDD.t4666 VDD.t1714 pfet_03v3 ad=1.3p pd=5.3u as=0 ps=0 w=2u l=2u
X143 VSS.t254 a_50751_n19729.t70 a_50751_n19729.t71 VSS.t224 nfet_03v3 ad=0.8p pd=2.8u as=1.22p ps=5.22u w=2u l=2u
X144 VDD.t4664 VDD.t4663 VDD.t4664 VDD.t583 pfet_03v3 ad=1.3p pd=5.3u as=0 ps=0 w=2u l=2u
X145 a_84547_n15000# a_71281_n10073.t76 a_83709_n14095# VDD.t311 pfet_03v3 ad=1.3p pd=5.3u as=1.3p ps=5.3u w=2u l=2u
X146 VDD.t4662 VDD.t4661 VDD.t4662 VDD.t409 pfet_03v3 ad=0.84p pd=2.84u as=0 ps=0 w=2u l=2u
X147 a_100235_n20430# a_71281_n8397.t82 a_99667_n20430# VDD.t444 pfet_03v3 ad=0.84p pd=2.84u as=0.84p ps=2.84u w=2u l=2u
X148 VDD.t4660 VDD.t4659 VDD.t4660 VDD.t307 pfet_03v3 ad=1.3p pd=5.3u as=0 ps=0 w=2u l=2u
X149 a_52635_49681.t5 a_35922_19591.t15 OUT.t102 VDD.t395 pfet_03v3 ad=0.84p pd=2.84u as=1.3p ps=5.3u w=2u l=2u
X150 VDD.t3 a_65486_n35156.t12 a_66016_n36322# VDD.t2 pfet_03v3 ad=1.3p pd=5.3u as=0.84p ps=2.84u w=2u l=2u
X151 a_67111_n2653# a_50751_n19729.t80 a_66551_n1756# VSS.t258 nfet_03v3 ad=1.22p pd=5.22u as=0.8p ps=2.8u w=2u l=2u
X152 VDD.t4658 VDD.t4657 VDD.t4658 VDD.t656 pfet_03v3 ad=1.3p pd=5.3u as=0 ps=0 w=2u l=2u
X153 VDD.t4656 VDD.t4655 VDD.t4656 VDD.t1867 pfet_03v3 ad=0.84p pd=2.84u as=0 ps=0 w=2u l=2u
X154 VDD.t4654 VDD.t4653 VDD.t4654 VDD.t312 pfet_03v3 ad=1.3p pd=5.3u as=0 ps=0 w=2u l=2u
X155 VDD.t4652 VDD.t4651 VDD.t4652 VDD.t586 pfet_03v3 ad=1.3p pd=5.3u as=0 ps=0 w=2u l=2u
X156 a_54579_n4447# a_50751_n19729.t81 a_54019_n4447# VSS.t259 nfet_03v3 ad=1.22p pd=5.22u as=0.8p ps=2.8u w=2u l=2u
X157 a_32353_n7136# a_31953_n19727.t78 a_31831_n7136# VSS.t99 nfet_03v3 ad=0.8p pd=2.8u as=1.22p ps=5.22u w=2u l=2u
X158 VSS.t3560 VSS.t3559 VSS.t3560 VSS.t107 nfet_03v3 ad=0.8p pd=2.8u as=0 ps=0 w=2u l=2u
X159 VSS.t295 a_112559_4481.t11 a_113081_5639# VSS.t294 nfet_03v3 ad=1.22p pd=5.22u as=0.8p ps=2.8u w=2u l=2u
X160 a_30324_n30399.t1 a_30152_n36322.t8 a_36530_n29181# VSS.t283 nfet_03v3 ad=1.22p pd=5.22u as=0.8p ps=2.8u w=2u l=2u
X161 VDD.t4650 VDD.t4649 VDD.t4650 VDD.t53 pfet_03v3 ad=0.84p pd=2.84u as=0 ps=0 w=2u l=2u
X162 VDD.t4648 VDD.t4647 VDD.t4648 VDD.t408 pfet_03v3 ad=0.84p pd=2.84u as=0 ps=0 w=2u l=2u
X163 VSS.t3558 VSS.t3557 VSS.t3558 VSS.t868 nfet_03v3 ad=0.8p pd=2.8u as=0 ps=0 w=2u l=2u
X164 a_34347_n7136# a_31953_n19727.t79 a_33787_n7136# VSS.t63 nfet_03v3 ad=1.22p pd=5.22u as=0.8p ps=2.8u w=2u l=2u
X165 VDD.t4646 VDD.t4645 VDD.t4646 VDD.t2399 pfet_03v3 ad=0.84p pd=2.84u as=0 ps=0 w=2u l=2u
X166 a_48349_n35156# a_47819_n35156.t7 a_47819_n35156.t8 VDD.t2559 pfet_03v3 ad=0.84p pd=2.84u as=1.3p ps=5.3u w=2u l=2u
X167 VSS.t3556 VSS.t3555 VSS.t3556 VSS.t472 nfet_03v3 ad=1.22p pd=5.22u as=0 ps=0 w=2u l=2u
X168 a_51711_n12421.t0 a_83153_11614.t9 a_89531_6405# VSS.t393 nfet_03v3 ad=1.22p pd=5.22u as=0.8p ps=2.8u w=2u l=2u
X169 a_101350_n34390# a_100820_n35156.t12 a_100820_n36322.t0 VDD.t523 pfet_03v3 ad=0.84p pd=2.84u as=1.3p ps=5.3u w=2u l=2u
X170 VSS.t3554 VSS.t3553 VSS.t3554 VSS.t25 nfet_03v3 ad=0.8p pd=2.8u as=0 ps=0 w=2u l=2u
X171 VSS.t3552 VSS.t3551 VSS.t3552 VSS.t1360 nfet_03v3 ad=0.8p pd=2.8u as=0 ps=0 w=2u l=2u
X172 a_77225_4481.t7 a_77225_4481.t6 a_79151_5639# VSS.t318 nfet_03v3 ad=1.22p pd=5.22u as=0.8p ps=2.8u w=2u l=2u
X173 a_106676_4481.t0 a_106830_10388.t8 a_107230_10448# VDD.t519 pfet_03v3 ad=1.3p pd=5.3u as=0.84p ps=2.84u w=2u l=2u
X174 VDD.t4644 VDD.t4643 VDD.t4644 VDD.t898 pfet_03v3 ad=1.3p pd=5.3u as=0 ps=0 w=2u l=2u
X175 VSS.t3550 VSS.t3549 VSS.t3550 VSS.t730 nfet_03v3 ad=1.22p pd=5.22u as=0 ps=0 w=2u l=2u
X176 a_33249_48695.t346 a_33379_34007.t6 a_33249_34067.t103 VDD.t73 pfet_03v3 ad=0.84p pd=2.84u as=0.84p ps=2.84u w=2u l=2u
X177 VSS.t3548 VSS.t3547 VSS.t3548 VSS.t65 nfet_03v3 ad=0.8p pd=2.8u as=0 ps=0 w=2u l=2u
X178 VSS.t3546 VSS.t3545 VSS.t3546 VSS.t713 nfet_03v3 ad=1.22p pd=5.22u as=0 ps=0 w=2u l=2u
X179 a_57417_n8932# a_50751_n19729.t82 a_56895_n8932# VSS.t260 nfet_03v3 ad=0.8p pd=2.8u as=1.22p ps=5.22u w=2u l=2u
X180 VDD.t4642 VDD.t4641 VDD.t4642 VDD.t2777 pfet_03v3 ad=0.84p pd=2.84u as=0 ps=0 w=2u l=2u
X181 a_98829_n20430# a_71281_n8397.t83 a_36032_n35156.t0 VDD.t469 pfet_03v3 ad=1.3p pd=5.3u as=1.3p ps=5.3u w=2u l=2u
X182 VDD.t4640 VDD.t4639 VDD.t4640 VDD.t432 pfet_03v3 ad=0.84p pd=2.84u as=0 ps=0 w=2u l=2u
X183 VDD.t4638 VDD.t4637 VDD.t4638 VDD.t306 pfet_03v3 ad=1.3p pd=5.3u as=0 ps=0 w=2u l=2u
X184 VSS.t3544 VSS.t3543 VSS.t3544 VSS.t129 nfet_03v3 ad=1.3725p pd=5.72u as=0 ps=0 w=2.25u l=2u
X185 VDD.t4636 VDD.t4635 VDD.t4636 VDD.t689 pfet_03v3 ad=1.3p pd=5.3u as=0 ps=0 w=2u l=2u
X186 VDD.t4634 VDD.t4633 VDD.t4634 VDD.t496 pfet_03v3 ad=0.84p pd=2.84u as=0 ps=0 w=2u l=2u
X187 a_30152_n35156.t5 a_30152_n35156.t4 a_32088_n34390# VDD.t551 pfet_03v3 ad=1.3p pd=5.3u as=0.84p ps=2.84u w=2u l=2u
X188 VSS.t3542 VSS.t3541 VSS.t3542 VSS.t537 nfet_03v3 ad=1.22p pd=5.22u as=0 ps=0 w=2u l=2u
X189 VDD.t4632 VDD.t4631 VDD.t4632 VDD.t563 pfet_03v3 ad=1.3p pd=5.3u as=0 ps=0 w=2u l=2u
X190 a_89563_13546# a_89163_10388.t8 a_89033_13546.t3 VDD.t552 pfet_03v3 ad=0.84p pd=2.84u as=1.3p ps=5.3u w=2u l=2u
X191 a_67422_13546# a_65486_10448.t11 VDD.t4745 VDD.t866 pfet_03v3 ad=0.84p pd=2.84u as=1.3p ps=5.3u w=2u l=2u
X192 VDD.t4630 VDD.t4629 VDD.t4630 VDD.t2382 pfet_03v3 ad=1.3p pd=5.3u as=0 ps=0 w=2u l=2u
X193 a_51151_n17803# a_50751_n19729.t83 a_50629_n17803# VSS.t261 nfet_03v3 ad=0.8p pd=2.8u as=1.22p ps=5.22u w=2u l=2u
X194 VSS.t3540 VSS.t3539 VSS.t3540 VSS.t853 nfet_03v3 ad=0.8p pd=2.8u as=0 ps=0 w=2u l=2u
X195 VDD.t4628 VDD.t4627 VDD.t4628 VDD.t1658 pfet_03v3 ad=0.84p pd=2.84u as=0 ps=0 w=2u l=2u
X196 a_43010_10448.t4 a_36032_11614.t3 a_42442_13546# VDD.t289 pfet_03v3 ad=1.3p pd=5.3u as=0.84p ps=2.84u w=2u l=2u
X197 VSS.t3538 VSS.t3537 VSS.t3538 VSS.t842 nfet_03v3 ad=1.3725p pd=5.72u as=0 ps=0 w=2.25u l=2u
X198 a_52635_34067.t4 a_35922_19591.t16 a_52635_48695.t83 VDD.t399 pfet_03v3 ad=0.84p pd=2.84u as=0.84p ps=2.84u w=2u l=2u
X199 a_48349_n33224# a_47819_n35156.t3 a_47819_n35156.t4 VDD.t2559 pfet_03v3 ad=0.84p pd=2.84u as=1.3p ps=5.3u w=2u l=2u
X200 a_42047_n19595# a_31953_n19727.t80 a_41487_n19595# VSS.t100 nfet_03v3 ad=1.22p pd=5.22u as=0.8p ps=2.8u w=2u l=2u
X201 a_30682_10448# a_30152_10448.t4 a_30152_10448.t5 VDD.t302 pfet_03v3 ad=0.84p pd=2.84u as=1.3p ps=5.3u w=2u l=2u
X202 VDD.t4626 VDD.t4625 VDD.t4626 VDD.t571 pfet_03v3 ad=1.3p pd=5.3u as=0 ps=0 w=2u l=2u
X203 VDD.t4624 VDD.t4623 VDD.t4624 VDD.t955 pfet_03v3 ad=1.3p pd=5.3u as=0 ps=0 w=2u l=2u
X204 a_32088_n36322# a_30152_n35156.t12 VDD.t4977 VDD.t2088 pfet_03v3 ad=0.84p pd=2.84u as=1.3p ps=5.3u w=2u l=2u
X205 VDD.t4622 VDD.t4621 VDD.t4622 VDD.t855 pfet_03v3 ad=0.84p pd=2.84u as=0 ps=0 w=2u l=2u
X206 a_105365_n20430# a_71281_n8397.t84 a_104527_n20430# VDD.t429 pfet_03v3 ad=0.84p pd=2.84u as=1.3p ps=5.3u w=2u l=2u
X207 VDD.t4620 VDD.t4619 VDD.t4620 VDD.t574 pfet_03v3 ad=1.3p pd=5.3u as=0 ps=0 w=2u l=2u
X208 VSS.t3536 VSS.t3535 VSS.t3536 VSS.t18 nfet_03v3 ad=1.22p pd=5.22u as=0 ps=0 w=2u l=2u
X209 VDD.t4972 a_52635_34067.t68 a_52635_48695.t174 VDD.t403 pfet_03v3 ad=0.84p pd=2.84u as=1.3p ps=5.3u w=2u l=2u
X210 OUT.t101 a_35922_19591.t17 a_52635_49681.t6 VDD.t392 pfet_03v3 ad=0.84p pd=2.84u as=0.84p ps=2.84u w=2u l=2u
X211 VDD.t4618 VDD.t4617 VDD.t4618 VDD.t898 pfet_03v3 ad=1.3p pd=5.3u as=0 ps=0 w=2u l=2u
X212 VDD.t4616 VDD.t4615 VDD.t4616 VDD.t302 pfet_03v3 ad=1.3p pd=5.3u as=0 ps=0 w=2u l=2u
X213 a_52635_34067.t5 a_35922_19591.t18 a_52635_48695.t82 VDD.t393 pfet_03v3 ad=1.3p pd=5.3u as=0.84p ps=2.84u w=2u l=2u
X214 VDD.t4614 VDD.t4613 VDD.t4614 VDD.t410 pfet_03v3 ad=0.84p pd=2.84u as=0 ps=0 w=2u l=2u
X215 VDD.t44 a_31699_20742.t43 a_31699_20742.t44 VDD.t38 pfet_03v3 ad=0.84p pd=2.84u as=0.84p ps=2.84u w=2u l=2u
X216 a_33249_48695.t329 a_31699_20742.t53 VDD.t59 VDD.t58 pfet_03v3 ad=0.84p pd=2.84u as=1.3p ps=5.3u w=2u l=2u
X217 VSS.t3534 VSS.t3533 VSS.t3534 VSS.t379 nfet_03v3 ad=1.22p pd=5.22u as=0 ps=0 w=2u l=2u
X218 VSS.t3532 VSS.t3531 VSS.t3532 VSS.t837 nfet_03v3 ad=0.8p pd=2.8u as=0 ps=0 w=2u l=2u
X219 OUT.t100 a_35922_19591.t19 a_52635_49681.t7 VDD.t391 pfet_03v3 ad=1.3p pd=5.3u as=0.84p ps=2.84u w=2u l=2u
X220 a_52635_34067.t6 a_35922_19591.t20 a_52635_48695.t81 VDD.t394 pfet_03v3 ad=0.84p pd=2.84u as=0.84p ps=2.84u w=2u l=2u
X221 VDD.t4612 VDD.t4611 VDD.t4612 VDD.t1818 pfet_03v3 ad=0.84p pd=2.84u as=0 ps=0 w=2u l=2u
X222 a_89563_11614# a_89163_10388.t9 a_81205_n14095.t2 VDD.t552 pfet_03v3 ad=0.84p pd=2.84u as=1.3p ps=5.3u w=2u l=2u
X223 a_67422_11614# a_65486_10448.t12 VDD.t4746 VDD.t866 pfet_03v3 ad=0.84p pd=2.84u as=1.3p ps=5.3u w=2u l=2u
X224 VDD.t4610 VDD.t4609 VDD.t4610 VDD.t683 pfet_03v3 ad=1.3p pd=5.3u as=0 ps=0 w=2u l=2u
X225 a_44885_n6239# a_31953_n19727.t81 a_44363_n7136# VSS.t101 nfet_03v3 ad=0.8p pd=2.8u as=1.22p ps=5.22u w=2u l=2u
X226 a_52635_49681.t8 a_35922_19591.t21 OUT.t99 VDD.t395 pfet_03v3 ad=0.84p pd=2.84u as=1.3p ps=5.3u w=2u l=2u
X227 VDD.t4608 VDD.t4607 VDD.t4608 VDD.t661 pfet_03v3 ad=1.3p pd=5.3u as=0 ps=0 w=2u l=2u
X228 a_31953_n19727.t71 a_31953_n19727.t70 VSS.t95 VSS.t63 nfet_03v3 ad=1.22p pd=5.22u as=0.8p ps=2.8u w=2u l=2u
X229 a_43010_10448.t0 a_36032_11614.t4 a_42442_11614# VDD.t289 pfet_03v3 ad=1.3p pd=5.3u as=0.84p ps=2.84u w=2u l=2u
X230 VSS.t3530 VSS.t3529 VSS.t3530 VSS.t558 nfet_03v3 ad=1.22p pd=5.22u as=0 ps=0 w=2u l=2u
X231 VDD.t4606 VDD.t4605 VDD.t4606 VDD.t745 pfet_03v3 ad=1.3p pd=5.3u as=0 ps=0 w=2u l=2u
X232 VSS.t341 a_89163_n36382.t8 a_89563_n35156# VDD.t547 pfet_03v3 ad=1.3p pd=5.3u as=0.84p ps=2.84u w=2u l=2u
X233 VSS.t3528 VSS.t3527 VSS.t3528 VSS.t1426 nfet_03v3 ad=0.8p pd=2.8u as=0 ps=0 w=2u l=2u
X234 VDD.t4604 VDD.t4603 VDD.t4604 VDD.t2344 pfet_03v3 ad=1.3p pd=5.3u as=0 ps=0 w=2u l=2u
X235 VDD.t4602 VDD.t4601 VDD.t4602 VDD.t855 pfet_03v3 ad=0.84p pd=2.84u as=0 ps=0 w=2u l=2u
X236 a_31953_n19727.t69 a_31953_n19727.t68 VSS.t94 VSS.t65 nfet_03v3 ad=1.22p pd=5.22u as=0.8p ps=2.8u w=2u l=2u
X237 a_47753_n15110# a_31953_n19727.t82 a_47231_n16904# VSS.t102 nfet_03v3 ad=0.8p pd=2.8u as=1.22p ps=5.22u w=2u l=2u
X238 VDD.t4600 VDD.t4599 VDD.t4600 VDD.t813 pfet_03v3 ad=0.84p pd=2.84u as=0 ps=0 w=2u l=2u
X239 VDD.t4598 VDD.t4597 VDD.t4598 VDD.t311 pfet_03v3 ad=1.3p pd=5.3u as=0 ps=0 w=2u l=2u
X240 VDD.t4596 VDD.t4595 VDD.t4596 VDD.t401 pfet_03v3 ad=1.3p pd=5.3u as=0 ps=0 w=2u l=2u
X241 VSS.t3526 VSS.t3525 VSS.t3526 VSS.t337 nfet_03v3 ad=0.8p pd=2.8u as=0 ps=0 w=2u l=2u
X242 a_89531_6405# a_83153_11614.t10 VDD.t4763 VSS.t394 nfet_03v3 ad=0.8p pd=2.8u as=1.22p ps=5.22u w=2u l=2u
X243 a_107339_n6055# a_71281_n8397.t85 a_106809_n5150.t2 VDD.t468 pfet_03v3 ad=1.3p pd=5.3u as=1.3p ps=5.3u w=2u l=2u
X244 VSS.t3524 VSS.t3523 VSS.t3524 VSS.t763 nfet_03v3 ad=1.22p pd=5.22u as=0 ps=0 w=2u l=6u
X245 VDD.t4594 VDD.t4593 VDD.t4594 VDD.t586 pfet_03v3 ad=1.3p pd=5.3u as=0 ps=0 w=2u l=2u
X246 VDD.t4592 VDD.t4591 VDD.t4592 VDD.t434 pfet_03v3 ad=1.3p pd=5.3u as=0 ps=0 w=2u l=2u
X247 a_52635_34067.t61 a_35502_24538.t25 a_33249_34067.t17 VSS.t165 nfet_03v3 ad=1.22p pd=5.22u as=0.8p ps=2.8u w=2u l=2u
X248 VSS.t368 a_41891_n29181.t11 a_42413_n27257# VSS.t166 nfet_03v3 ad=1.22p pd=5.22u as=0.8p ps=2.8u w=2u l=2u
X249 VDD.t4590 VDD.t4589 VDD.t4590 VDD.t667 pfet_03v3 ad=0.84p pd=2.84u as=0 ps=0 w=2u l=2u
X250 VDD.t4588 VDD.t4587 VDD.t4588 VDD.t920 pfet_03v3 ad=1.3p pd=5.3u as=0 ps=0 w=2u l=6u
X251 VDD.t4586 VDD.t4585 VDD.t4586 VDD.t1787 pfet_03v3 ad=1.3p pd=5.3u as=0 ps=0 w=2u l=2u
X252 VDD.t4584 VDD.t4583 VDD.t4584 VDD.t0 pfet_03v3 ad=1.3p pd=5.3u as=0 ps=0 w=2u l=2u
X253 VDD.t4582 VDD.t4581 VDD.t4582 VDD.t423 pfet_03v3 ad=1.3p pd=5.3u as=0 ps=0 w=2u l=2u
X254 VSS.t3522 VSS.t3521 VSS.t3522 VSS.t716 nfet_03v3 ad=1.22p pd=5.22u as=0 ps=0 w=2u l=2u
X255 a_33249_48695.t347 a_33379_34007.t7 a_33249_34067.t102 VDD.t73 pfet_03v3 ad=0.84p pd=2.84u as=0.84p ps=2.84u w=2u l=2u
X256 a_89407_n6960# a_71281_n10073.t77 a_88839_n6960# VDD.t341 pfet_03v3 ad=1.3p pd=5.3u as=0.84p ps=2.84u w=2u l=2u
X257 VSS.t3520 VSS.t3519 VSS.t3520 VSS.t601 nfet_03v3 ad=1.22p pd=5.22u as=0 ps=0 w=2u l=2u
X258 VSS.t3518 VSS.t3517 VSS.t3518 VSS.t531 nfet_03v3 ad=1.22p pd=5.22u as=0 ps=0 w=2u l=2u
X259 VDD.t4580 VDD.t4579 VDD.t4580 VDD.t842 pfet_03v3 ad=1.3p pd=5.3u as=0 ps=0 w=2u l=2u
X260 a_89009_n27257.t2 a_89163_n36382.t9 a_89563_n33224# VDD.t547 pfet_03v3 ad=1.3p pd=5.3u as=0.84p ps=2.84u w=2u l=2u
X261 a_89033_13546.t2 a_89163_10388.t10 a_90969_10448# VDD.t553 pfet_03v3 ad=1.3p pd=5.3u as=0.84p ps=2.84u w=2u l=2u
X262 a_31699_20742.t42 a_31699_20742.t41 VDD.t43 VDD.t20 pfet_03v3 ad=0.84p pd=2.84u as=0.84p ps=2.84u w=2u l=2u
X263 VDD.t4578 VDD.t4577 VDD.t4578 VDD.t47 pfet_03v3 ad=0.84p pd=2.84u as=0 ps=0 w=2u l=2u
X264 a_53699_n36322.t3 a_71496_n36382.t8 a_73302_n36322# VDD.t2058 pfet_03v3 ad=1.3p pd=5.3u as=0.84p ps=2.84u w=2u l=2u
X265 VDD.t4576 VDD.t4575 VDD.t4576 VDD.t813 pfet_03v3 ad=0.84p pd=2.84u as=0 ps=0 w=2u l=2u
X266 VSS.t3516 VSS.t3515 VSS.t3516 VSS.t467 nfet_03v3 ad=1.22p pd=5.22u as=0 ps=0 w=2u l=2u
X267 VDD.t4574 VDD.t4573 VDD.t4574 VDD.t828 pfet_03v3 ad=0.84p pd=2.84u as=0 ps=0 w=2u l=2u
X268 a_100235_n15905# a_71281_n8397.t86 a_99667_n15905# VDD.t444 pfet_03v3 ad=0.84p pd=2.84u as=0.84p ps=2.84u w=2u l=2u
X269 VSS.t3514 VSS.t3513 VSS.t3514 VSS.t1794 nfet_03v3 ad=1.22p pd=5.22u as=0 ps=0 w=2u l=6u
X270 VDD.t4572 VDD.t4571 VDD.t4572 VDD.t82 pfet_03v3 ad=0.84p pd=2.84u as=0 ps=0 w=2u l=2u
X271 VDD.t4570 VDD.t4569 VDD.t4570 VDD.t397 pfet_03v3 ad=0.84p pd=2.84u as=0 ps=0 w=2u l=2u
X272 a_33249_48695.t16 a_33379_34917.t5 a_33249_35053.t2 VDD.t96 pfet_03v3 ad=0.84p pd=2.84u as=0.84p ps=2.84u w=2u l=2u
X273 VDD.t61 a_31699_20742.t54 a_33249_48695.t328 VDD.t60 pfet_03v3 ad=0.84p pd=2.84u as=1.3p ps=5.3u w=2u l=2u
X274 a_40613_n14213# a_31953_n19727.t83 a_40053_n14213# VSS.t56 nfet_03v3 ad=1.22p pd=5.22u as=0.8p ps=2.8u w=2u l=2u
X275 VSS.t3512 VSS.t3511 VSS.t3512 VSS.t340 nfet_03v3 ad=0.8p pd=2.8u as=0 ps=0 w=2u l=2u
X276 a_67462_n29181# a_45445_n19595.t2 a_44363_n16007.t1 VSS.t289 nfet_03v3 ad=0.8p pd=2.8u as=1.22p ps=5.22u w=2u l=2u
X277 a_31699_20742.t40 a_31699_20742.t39 VDD.t42 VDD.t23 pfet_03v3 ad=0.84p pd=2.84u as=0.84p ps=2.84u w=2u l=2u
X278 VDD.t4568 VDD.t4567 VDD.t4568 VDD.t2302 pfet_03v3 ad=0.84p pd=2.84u as=0 ps=0 w=2u l=2u
X279 VDD.t4566 VDD.t4565 VDD.t4566 VDD.t439 pfet_03v3 ad=0.84p pd=2.84u as=0 ps=0 w=2u l=2u
X280 a_94537_n9675# a_71281_n10073.t78 a_93969_n9675# VDD.t318 pfet_03v3 ad=0.84p pd=2.84u as=0.84p ps=2.84u w=2u l=2u
X281 VDD.t4564 VDD.t4563 VDD.t4564 VDD.t563 pfet_03v3 ad=1.3p pd=5.3u as=0 ps=0 w=2u l=2u
X282 a_78344_n36322.t3 a_71366_n35156.t5 a_77776_n36322# VDD.t502 pfet_03v3 ad=1.3p pd=5.3u as=0.84p ps=2.84u w=2u l=2u
X283 a_33249_34067.t101 a_33379_34007.t8 a_33249_48695.t348 VDD.t82 pfet_03v3 ad=1.3p pd=5.3u as=0.84p ps=2.84u w=2u l=2u
X284 a_52635_34067.t7 a_35922_19591.t22 a_52635_48695.t80 VDD.t397 pfet_03v3 ad=1.3p pd=5.3u as=0.84p ps=2.84u w=2u l=2u
X285 VDD.t4562 VDD.t4561 VDD.t4562 VDD.t351 pfet_03v3 ad=1.3p pd=5.3u as=0 ps=0 w=2u l=2u
X286 VSS.t3510 VSS.t3509 VSS.t3510 VSS.t331 nfet_03v3 ad=1.22p pd=5.22u as=0 ps=0 w=2u l=2u
X287 VDD.t4560 VDD.t4559 VDD.t4560 VDD.t1642 pfet_03v3 ad=1.3p pd=5.3u as=0 ps=0 w=2u l=2u
X288 VSS.t3508 VSS.t3507 VSS.t3508 VSS.t1466 nfet_03v3 ad=0.8p pd=2.8u as=0 ps=0 w=2u l=2u
X289 VSS.t3506 VSS.t3505 VSS.t3506 VSS.t811 nfet_03v3 ad=1.22p pd=5.22u as=0 ps=0 w=2u l=2u
X290 VDD.t4558 VDD.t4557 VDD.t4558 VDD.t613 pfet_03v3 ad=1.3p pd=5.3u as=0 ps=0 w=2u l=2u