** sch_path: /home/lci-ufsc/Desktop/Bracolin/TIA_Filter/PseudoResistor/TB_PR_series_dc.sch
**.subckt TB_PR_series_dc
VDD VDD GND 3.3
VX Vxa net9 0
VB1 Vxb net2 3.3
R1 net1 Vxa 100k m=1
R2 net2 net1 100k m=1
VB2 net9 GND 1.65
x2 VB Vxb VB GND ampOp_ideal
x3 VA Vxa VA GND ampOp_ideal
x1 Vxb GND net1 GND ampOp_ideal
Vai VA VA__i 0
.save i(vai)
Vbi VB VB__i 0
.save i(vbi)
Vbi2 VB2 VB2__i 0
.save i(vbi2)
Vai2 VA2 net3 0
.save i(vai2)
x7 VB2 Vxb VB2 GND ampOp_ideal
x8 VA2 Vxa VA2 GND ampOp_ideal
x13 net4 VA__i net3 VB2__i VB__i net5 net6 VDD GND PR_CM_net
I1 VDD net4 {ibias}
Vinn6 net8 net5 0
.save i(vinn6)
Vinp3 net6 net7 0
.save i(vinp3)
V1 net7 GND 1.65
V2 net8 GND 1.65
**** begin user architecture code

.include /home/lci-ufsc/pdk/gf180mcuD/libs.tech/ngspice/design.ngspice
.lib /home/lci-ufsc/pdk/gf180mcuD/libs.tech/ngspice/sm141064.ngspice typical
*.param sw_stat_mismatch=1
*.param sw_stat_global=1



*.OPTION ABSTOL=1e-2
.option gmin=1e-16
*.option RSHUNT=1e35
.option klu

*.nodeset v(Vin_neg)=1.65
*.nodeset v(vout)=1.65

*.nodeset all=1.65

.param ibias = 1n
*.param it_amp = 2p

.control
save all

op
remzerovec
write TB_PR_series_dc.raw
set appendwrite

dc VX -200m 200m 10m

let idiff = i(vai)-i(vbi)
let Rdiff = 4/deriv(idiff)

let idiff2 = i(vai2)-i(vbi2)
let Rdiff2 = 4/deriv(idiff2)

save idiff Rdiff idiff2 Rdiff2
remzerovec
write TB_PR_series_dc.raw
wrdata /home/lci-ufsc/Desktop/Bracolin/TIA_Filter/plot_data/TB_PR_series_dc.txt idiff Rdiff idiff2 Rdiff2 V(vxb) V(vxa) I(Vinp3)  I(Vinn6)

.endc


**** end user architecture code
**.ends

* expanding   symbol:  auxLib/ampOp_ideal.sym # of pins=4
** sym_path: /home/lci-ufsc/Desktop/Bracolin/TIA_Filter/auxLib/ampOp_ideal.sym
** sch_path: /home/lci-ufsc/Desktop/Bracolin/TIA_Filter/auxLib/ampOp_ideal.sch
.subckt ampOp_ideal out + - gnd
*.ipin +
*.ipin -
*.opin out
*.iopin gnd
E1 out gnd + - 10000000
.ends


* expanding   symbol:  PR_CM_net.sym # of pins=9
** sym_path: /home/lci-ufsc/Desktop/Bracolin/TIA_Filter/PR_CM_net.sym
** sch_path: /home/lci-ufsc/Desktop/Bracolin/TIA_Filter/PR_CM_net.sch
.subckt PR_CM_net ISBCS A1 A2 B2 B1 CMOUTN CMOUTP VDD VSS
*.iopin ISBCS
*.iopin A2
*.iopin B2
*.iopin A1
*.iopin B1
*.iopin CMOUTN
*.iopin CMOUTP
*.iopin VDD
*.iopin VSS
x9 net1 net3 net4 net5 net12 net6 net7 net8 net9 net10 net11 CMOUTN VSS VSS CM_n_net
x10 net2 net13 net14 net15 net16 net17 net18 net19 net20 net21 net22 CMOUTP VDD VDD CM_p_net
x11 A1 B1 net6 net5 net3 net10 net8 net17 net15 net19 net13 net21 net7 net4 net11 net12 net9 net22 net16 net14 net20 net18 VDD VSS
+ PRbiased_net_x5
x12 net23 net2 net24 net1 ISBCS VDD VSS CM_input
x1 net23 net35 net36 net37 net38 net39 net40 net41 net42 net43 net44 VDD VDD VDD CM_p_net
x2 net24 net25 net26 net27 net28 net29 net30 net31 net32 net33 net34 VSS VSS VSS CM_n_net
x3 A2 B2 net29 net27 net25 net33 net31 net39 net37 net41 net35 net43 net30 net26 net34 net28 net32 net44 net38 net36 net42 net40
+ VDD VSS PRbiased_net_x5
.ends


* expanding   symbol:  CurrentMirrors/CM_n_net.sym # of pins=14
** sym_path: /home/lci-ufsc/Desktop/Bracolin/TIA_Filter/CurrentMirrors/CM_n_net.sym
** sch_path: /home/lci-ufsc/Desktop/Bracolin/TIA_Filter/CurrentMirrors/CM_n_net.sch
.subckt CM_n_net IN OUT1 OUT2 OUT3 OUT4 OUT5 OUT6 OUT7 OUT8 OUT9 OUT10 OUT11 OUT12 VSS
*.iopin IN
*.iopin OUT1
*.iopin OUT2
*.iopin VSS
*.iopin OUT3
*.iopin OUT4
*.iopin OUT5
*.iopin OUT6
*.iopin OUT7
*.iopin OUT8
*.iopin OUT9
*.iopin OUT10
*.iopin OUT11
*.iopin OUT12
x1 IN OUT1 OUT2 VSS CM_nfets
x2 IN OUT3 OUT4 VSS CM_nfets
x4 IN OUT9 OUT10 VSS CM_nfets
x5 IN OUT7 OUT8 VSS CM_nfets
x3 IN OUT5 OUT6 VSS CM_nfets
x7 IN OUT11 OUT12 VSS CM_nfets
.ends


* expanding   symbol:  CurrentMirrors/CM_p_net.sym # of pins=14
** sym_path: /home/lci-ufsc/Desktop/Bracolin/TIA_Filter/CurrentMirrors/CM_p_net.sym
** sch_path: /home/lci-ufsc/Desktop/Bracolin/TIA_Filter/CurrentMirrors/CM_p_net.sch
.subckt CM_p_net IN OUT1 OUT2 OUT3 OUT4 OUT5 OUT6 OUT7 OUT8 OUT9 OUT10 OUT11 OUT12 VDD
*.iopin IN
*.iopin OUT1
*.iopin OUT2
*.iopin VDD
*.iopin OUT3
*.iopin OUT4
*.iopin OUT5
*.iopin OUT6
*.iopin OUT7
*.iopin OUT8
*.iopin OUT9
*.iopin OUT10
*.iopin OUT11
*.iopin OUT12
x1 IN OUT1 OUT2 VDD CM_pfets
x2 IN OUT3 OUT4 VDD CM_pfets
x3 IN OUT5 OUT6 VDD CM_pfets
x4 IN OUT7 OUT8 VDD CM_pfets
x5 IN OUT9 OUT10 VDD CM_pfets
x6 IN OUT11 OUT12 VDD CM_pfets
.ends


* expanding   symbol:  PseudoResistor/PRbiased_net_x5.sym # of pins=24
** sym_path: /home/lci-ufsc/Desktop/Bracolin/TIA_Filter/PseudoResistor/PRbiased_net_x5.sym
** sch_path: /home/lci-ufsc/Desktop/Bracolin/TIA_Filter/PseudoResistor/PRbiased_net_x5.sch
.subckt PRbiased_net_x5 VA VB IBN3 IBN2 IBN1 IBN5 IBN4 IBP3 IBP2 IBP4 IBP1 IBP5 ITN3 ITN1 ITN5 ITN2 ITN4 ITP5 ITP2 ITP1 ITP4 ITP3
+ VDD VSS
*.iopin VA
*.iopin VB
*.iopin IBN1
*.iopin IBP1
*.iopin ITN1
*.iopin ITP1
*.iopin VDD
*.iopin VSS
*.iopin IBN2
*.iopin IBP2
*.iopin ITN2
*.iopin ITP2
*.iopin IBN3
*.iopin IBP3
*.iopin ITN3
*.iopin ITP3
*.iopin IBN4
*.iopin IBP4
*.iopin ITN4
*.iopin ITP4
*.iopin IBN5
*.iopin IBP5
*.iopin ITN5
*.iopin ITP5
x1 VA net1 IBN1 IBP1 ITN1 ITP1 VDD VSS PRbiased_net
x2 net1 net2 IBN2 IBP2 ITN2 ITP2 VDD VSS PRbiased_net
x3 net2 net3 IBN3 IBP3 ITN3 ITP3 VDD VSS PRbiased_net
x4 net3 net4 IBN4 IBP4 ITN4 ITP4 VDD VSS PRbiased_net
x5 net4 VB IBN5 IBP5 ITN5 ITP5 VDD VSS PRbiased_net
.ends


* expanding   symbol:  CurrentMirrors/CM_input.sym # of pins=7
** sym_path: /home/lci-ufsc/Desktop/Bracolin/TIA_Filter/CurrentMirrors/CM_input.sym
** sch_path: /home/lci-ufsc/Desktop/Bracolin/TIA_Filter/CurrentMirrors/CM_input.sch
.subckt CM_input IP IP2 IN IN2 ISBCS VDD VSS
*.iopin IP
*.iopin IP2
*.iopin IN
*.iopin IN2
*.iopin ISBCS
*.iopin VDD
*.iopin VSS
XM1[1] ISBCS ISBCS net1[1] VSS nfet_03v3 L=6u W=2u nf=1 ad='int((nf+1)/2) * W/nf * 0.18u' as='int((nf+2)/2) * W/nf * 0.18u' pd='2*int((nf+1)/2) * (W/nf + 0.18u)'
+ ps='2*int((nf+2)/2) * (W/nf + 0.18u)' nrd='0.18u / W' nrs='0.18u / W' sa=0 sb=0 sd=0 m=1
XM1[2] ISBCS ISBCS net1[0] VSS nfet_03v3 L=6u W=2u nf=1 ad='int((nf+1)/2) * W/nf * 0.18u' as='int((nf+2)/2) * W/nf * 0.18u' pd='2*int((nf+1)/2) * (W/nf + 0.18u)'
+ ps='2*int((nf+2)/2) * (W/nf + 0.18u)' nrd='0.18u / W' nrs='0.18u / W' sa=0 sb=0 sd=0 m=1
XM2[1] vgp vgp net5[1] VDD pfet_03v3 L=6u W=2u nf=1 ad='int((nf+1)/2) * W/nf * 0.18u' as='int((nf+2)/2) * W/nf * 0.18u' pd='2*int((nf+1)/2) * (W/nf + 0.18u)'
+ ps='2*int((nf+2)/2) * (W/nf + 0.18u)' nrd='0.18u / W' nrs='0.18u / W' sa=0 sb=0 sd=0 m=1
XM2[2] vgp vgp net5[0] VDD pfet_03v3 L=6u W=2u nf=1 ad='int((nf+1)/2) * W/nf * 0.18u' as='int((nf+2)/2) * W/nf * 0.18u' pd='2*int((nf+1)/2) * (W/nf + 0.18u)'
+ ps='2*int((nf+2)/2) * (W/nf + 0.18u)' nrd='0.18u / W' nrs='0.18u / W' sa=0 sb=0 sd=0 m=1
XM3[1] net1[1] ISBCS VSS VSS nfet_03v3 L=6u W=2u nf=1 ad='int((nf+1)/2) * W/nf * 0.18u' as='int((nf+2)/2) * W/nf * 0.18u' pd='2*int((nf+1)/2) * (W/nf + 0.18u)'
+ ps='2*int((nf+2)/2) * (W/nf + 0.18u)' nrd='0.18u / W' nrs='0.18u / W' sa=0 sb=0 sd=0 m=1
XM3[2] net1[0] ISBCS VSS VSS nfet_03v3 L=6u W=2u nf=1 ad='int((nf+1)/2) * W/nf * 0.18u' as='int((nf+2)/2) * W/nf * 0.18u' pd='2*int((nf+1)/2) * (W/nf + 0.18u)'
+ ps='2*int((nf+2)/2) * (W/nf + 0.18u)' nrd='0.18u / W' nrs='0.18u / W' sa=0 sb=0 sd=0 m=1
XM4[1] IP ISBCS net2[1] VSS nfet_03v3 L=6u W=2u nf=1 ad='int((nf+1)/2) * W/nf * 0.18u' as='int((nf+2)/2) * W/nf * 0.18u' pd='2*int((nf+1)/2) * (W/nf + 0.18u)'
+ ps='2*int((nf+2)/2) * (W/nf + 0.18u)' nrd='0.18u / W' nrs='0.18u / W' sa=0 sb=0 sd=0 m=1
XM4[2] IP ISBCS net2[0] VSS nfet_03v3 L=6u W=2u nf=1 ad='int((nf+1)/2) * W/nf * 0.18u' as='int((nf+2)/2) * W/nf * 0.18u' pd='2*int((nf+1)/2) * (W/nf + 0.18u)'
+ ps='2*int((nf+2)/2) * (W/nf + 0.18u)' nrd='0.18u / W' nrs='0.18u / W' sa=0 sb=0 sd=0 m=1
XM5[1] net2[1] ISBCS VSS VSS nfet_03v3 L=6u W=2u nf=1 ad='int((nf+1)/2) * W/nf * 0.18u' as='int((nf+2)/2) * W/nf * 0.18u' pd='2*int((nf+1)/2) * (W/nf + 0.18u)'
+ ps='2*int((nf+2)/2) * (W/nf + 0.18u)' nrd='0.18u / W' nrs='0.18u / W' sa=0 sb=0 sd=0 m=1
XM5[2] net2[0] ISBCS VSS VSS nfet_03v3 L=6u W=2u nf=1 ad='int((nf+1)/2) * W/nf * 0.18u' as='int((nf+2)/2) * W/nf * 0.18u' pd='2*int((nf+1)/2) * (W/nf + 0.18u)'
+ ps='2*int((nf+2)/2) * (W/nf + 0.18u)' nrd='0.18u / W' nrs='0.18u / W' sa=0 sb=0 sd=0 m=1
XM6[1] IP2 ISBCS net3[1] VSS nfet_03v3 L=6u W=2u nf=1 ad='int((nf+1)/2) * W/nf * 0.18u' as='int((nf+2)/2) * W/nf * 0.18u' pd='2*int((nf+1)/2) * (W/nf + 0.18u)'
+ ps='2*int((nf+2)/2) * (W/nf + 0.18u)' nrd='0.18u / W' nrs='0.18u / W' sa=0 sb=0 sd=0 m=1
XM6[2] IP2 ISBCS net3[0] VSS nfet_03v3 L=6u W=2u nf=1 ad='int((nf+1)/2) * W/nf * 0.18u' as='int((nf+2)/2) * W/nf * 0.18u' pd='2*int((nf+1)/2) * (W/nf + 0.18u)'
+ ps='2*int((nf+2)/2) * (W/nf + 0.18u)' nrd='0.18u / W' nrs='0.18u / W' sa=0 sb=0 sd=0 m=1
XM7[1] net3[1] ISBCS VSS VSS nfet_03v3 L=6u W=2u nf=1 ad='int((nf+1)/2) * W/nf * 0.18u' as='int((nf+2)/2) * W/nf * 0.18u' pd='2*int((nf+1)/2) * (W/nf + 0.18u)'
+ ps='2*int((nf+2)/2) * (W/nf + 0.18u)' nrd='0.18u / W' nrs='0.18u / W' sa=0 sb=0 sd=0 m=1
XM7[2] net3[0] ISBCS VSS VSS nfet_03v3 L=6u W=2u nf=1 ad='int((nf+1)/2) * W/nf * 0.18u' as='int((nf+2)/2) * W/nf * 0.18u' pd='2*int((nf+1)/2) * (W/nf + 0.18u)'
+ ps='2*int((nf+2)/2) * (W/nf + 0.18u)' nrd='0.18u / W' nrs='0.18u / W' sa=0 sb=0 sd=0 m=1
XM8[1] vgp ISBCS net4[1] VSS nfet_03v3 L=6u W=2u nf=1 ad='int((nf+1)/2) * W/nf * 0.18u' as='int((nf+2)/2) * W/nf * 0.18u' pd='2*int((nf+1)/2) * (W/nf + 0.18u)'
+ ps='2*int((nf+2)/2) * (W/nf + 0.18u)' nrd='0.18u / W' nrs='0.18u / W' sa=0 sb=0 sd=0 m=1
XM8[2] vgp ISBCS net4[0] VSS nfet_03v3 L=6u W=2u nf=1 ad='int((nf+1)/2) * W/nf * 0.18u' as='int((nf+2)/2) * W/nf * 0.18u' pd='2*int((nf+1)/2) * (W/nf + 0.18u)'
+ ps='2*int((nf+2)/2) * (W/nf + 0.18u)' nrd='0.18u / W' nrs='0.18u / W' sa=0 sb=0 sd=0 m=1
XM9[1] net4[1] ISBCS VSS VSS nfet_03v3 L=6u W=2u nf=1 ad='int((nf+1)/2) * W/nf * 0.18u' as='int((nf+2)/2) * W/nf * 0.18u' pd='2*int((nf+1)/2) * (W/nf + 0.18u)'
+ ps='2*int((nf+2)/2) * (W/nf + 0.18u)' nrd='0.18u / W' nrs='0.18u / W' sa=0 sb=0 sd=0 m=1
XM9[2] net4[0] ISBCS VSS VSS nfet_03v3 L=6u W=2u nf=1 ad='int((nf+1)/2) * W/nf * 0.18u' as='int((nf+2)/2) * W/nf * 0.18u' pd='2*int((nf+1)/2) * (W/nf + 0.18u)'
+ ps='2*int((nf+2)/2) * (W/nf + 0.18u)' nrd='0.18u / W' nrs='0.18u / W' sa=0 sb=0 sd=0 m=1
XM10[1] net5[1] vgp VDD VDD pfet_03v3 L=6u W=2u nf=1 ad='int((nf+1)/2) * W/nf * 0.18u' as='int((nf+2)/2) * W/nf * 0.18u' pd='2*int((nf+1)/2) * (W/nf + 0.18u)'
+ ps='2*int((nf+2)/2) * (W/nf + 0.18u)' nrd='0.18u / W' nrs='0.18u / W' sa=0 sb=0 sd=0 m=1
XM10[2] net5[0] vgp VDD VDD pfet_03v3 L=6u W=2u nf=1 ad='int((nf+1)/2) * W/nf * 0.18u' as='int((nf+2)/2) * W/nf * 0.18u' pd='2*int((nf+1)/2) * (W/nf + 0.18u)'
+ ps='2*int((nf+2)/2) * (W/nf + 0.18u)' nrd='0.18u / W' nrs='0.18u / W' sa=0 sb=0 sd=0 m=1
XM11[1] IN vgp net6[1] VDD pfet_03v3 L=6u W=2u nf=1 ad='int((nf+1)/2) * W/nf * 0.18u' as='int((nf+2)/2) * W/nf * 0.18u' pd='2*int((nf+1)/2) * (W/nf + 0.18u)'
+ ps='2*int((nf+2)/2) * (W/nf + 0.18u)' nrd='0.18u / W' nrs='0.18u / W' sa=0 sb=0 sd=0 m=1
XM11[2] IN vgp net6[0] VDD pfet_03v3 L=6u W=2u nf=1 ad='int((nf+1)/2) * W/nf * 0.18u' as='int((nf+2)/2) * W/nf * 0.18u' pd='2*int((nf+1)/2) * (W/nf + 0.18u)'
+ ps='2*int((nf+2)/2) * (W/nf + 0.18u)' nrd='0.18u / W' nrs='0.18u / W' sa=0 sb=0 sd=0 m=1
XM12[1] net6[1] vgp VDD VDD pfet_03v3 L=6u W=2u nf=1 ad='int((nf+1)/2) * W/nf * 0.18u' as='int((nf+2)/2) * W/nf * 0.18u' pd='2*int((nf+1)/2) * (W/nf + 0.18u)'
+ ps='2*int((nf+2)/2) * (W/nf + 0.18u)' nrd='0.18u / W' nrs='0.18u / W' sa=0 sb=0 sd=0 m=1
XM12[2] net6[0] vgp VDD VDD pfet_03v3 L=6u W=2u nf=1 ad='int((nf+1)/2) * W/nf * 0.18u' as='int((nf+2)/2) * W/nf * 0.18u' pd='2*int((nf+1)/2) * (W/nf + 0.18u)'
+ ps='2*int((nf+2)/2) * (W/nf + 0.18u)' nrd='0.18u / W' nrs='0.18u / W' sa=0 sb=0 sd=0 m=1
XM13[1] IN2 vgp net7[1] VDD pfet_03v3 L=6u W=2u nf=1 ad='int((nf+1)/2) * W/nf * 0.18u' as='int((nf+2)/2) * W/nf * 0.18u' pd='2*int((nf+1)/2) * (W/nf + 0.18u)'
+ ps='2*int((nf+2)/2) * (W/nf + 0.18u)' nrd='0.18u / W' nrs='0.18u / W' sa=0 sb=0 sd=0 m=1
XM13[2] IN2 vgp net7[0] VDD pfet_03v3 L=6u W=2u nf=1 ad='int((nf+1)/2) * W/nf * 0.18u' as='int((nf+2)/2) * W/nf * 0.18u' pd='2*int((nf+1)/2) * (W/nf + 0.18u)'
+ ps='2*int((nf+2)/2) * (W/nf + 0.18u)' nrd='0.18u / W' nrs='0.18u / W' sa=0 sb=0 sd=0 m=1
XM16[1] net7[1] vgp VDD VDD pfet_03v3 L=6u W=2u nf=1 ad='int((nf+1)/2) * W/nf * 0.18u' as='int((nf+2)/2) * W/nf * 0.18u' pd='2*int((nf+1)/2) * (W/nf + 0.18u)'
+ ps='2*int((nf+2)/2) * (W/nf + 0.18u)' nrd='0.18u / W' nrs='0.18u / W' sa=0 sb=0 sd=0 m=1
XM16[2] net7[0] vgp VDD VDD pfet_03v3 L=6u W=2u nf=1 ad='int((nf+1)/2) * W/nf * 0.18u' as='int((nf+2)/2) * W/nf * 0.18u' pd='2*int((nf+1)/2) * (W/nf + 0.18u)'
+ ps='2*int((nf+2)/2) * (W/nf + 0.18u)' nrd='0.18u / W' nrs='0.18u / W' sa=0 sb=0 sd=0 m=1
XM14[1] VSS VSS VSS VSS nfet_03v3 L=6u W=2u nf=1 ad='int((nf+1)/2) * W/nf * 0.18u' as='int((nf+2)/2) * W/nf * 0.18u' pd='2*int((nf+1)/2) * (W/nf + 0.18u)'
+ ps='2*int((nf+2)/2) * (W/nf + 0.18u)' nrd='0.18u / W' nrs='0.18u / W' sa=0 sb=0 sd=0 m=1
XM14[2] VSS VSS VSS VSS nfet_03v3 L=6u W=2u nf=1 ad='int((nf+1)/2) * W/nf * 0.18u' as='int((nf+2)/2) * W/nf * 0.18u' pd='2*int((nf+1)/2) * (W/nf + 0.18u)'
+ ps='2*int((nf+2)/2) * (W/nf + 0.18u)' nrd='0.18u / W' nrs='0.18u / W' sa=0 sb=0 sd=0 m=1
XM14[3] VSS VSS VSS VSS nfet_03v3 L=6u W=2u nf=1 ad='int((nf+1)/2) * W/nf * 0.18u' as='int((nf+2)/2) * W/nf * 0.18u' pd='2*int((nf+1)/2) * (W/nf + 0.18u)'
+ ps='2*int((nf+2)/2) * (W/nf + 0.18u)' nrd='0.18u / W' nrs='0.18u / W' sa=0 sb=0 sd=0 m=1
XM14[4] VSS VSS VSS VSS nfet_03v3 L=6u W=2u nf=1 ad='int((nf+1)/2) * W/nf * 0.18u' as='int((nf+2)/2) * W/nf * 0.18u' pd='2*int((nf+1)/2) * (W/nf + 0.18u)'
+ ps='2*int((nf+2)/2) * (W/nf + 0.18u)' nrd='0.18u / W' nrs='0.18u / W' sa=0 sb=0 sd=0 m=1
XM14[5] VSS VSS VSS VSS nfet_03v3 L=6u W=2u nf=1 ad='int((nf+1)/2) * W/nf * 0.18u' as='int((nf+2)/2) * W/nf * 0.18u' pd='2*int((nf+1)/2) * (W/nf + 0.18u)'
+ ps='2*int((nf+2)/2) * (W/nf + 0.18u)' nrd='0.18u / W' nrs='0.18u / W' sa=0 sb=0 sd=0 m=1
XM14[6] VSS VSS VSS VSS nfet_03v3 L=6u W=2u nf=1 ad='int((nf+1)/2) * W/nf * 0.18u' as='int((nf+2)/2) * W/nf * 0.18u' pd='2*int((nf+1)/2) * (W/nf + 0.18u)'
+ ps='2*int((nf+2)/2) * (W/nf + 0.18u)' nrd='0.18u / W' nrs='0.18u / W' sa=0 sb=0 sd=0 m=1
XM14[7] VSS VSS VSS VSS nfet_03v3 L=6u W=2u nf=1 ad='int((nf+1)/2) * W/nf * 0.18u' as='int((nf+2)/2) * W/nf * 0.18u' pd='2*int((nf+1)/2) * (W/nf + 0.18u)'
+ ps='2*int((nf+2)/2) * (W/nf + 0.18u)' nrd='0.18u / W' nrs='0.18u / W' sa=0 sb=0 sd=0 m=1
XM14[8] VSS VSS VSS VSS nfet_03v3 L=6u W=2u nf=1 ad='int((nf+1)/2) * W/nf * 0.18u' as='int((nf+2)/2) * W/nf * 0.18u' pd='2*int((nf+1)/2) * (W/nf + 0.18u)'
+ ps='2*int((nf+2)/2) * (W/nf + 0.18u)' nrd='0.18u / W' nrs='0.18u / W' sa=0 sb=0 sd=0 m=1
XM14[9] VSS VSS VSS VSS nfet_03v3 L=6u W=2u nf=1 ad='int((nf+1)/2) * W/nf * 0.18u' as='int((nf+2)/2) * W/nf * 0.18u' pd='2*int((nf+1)/2) * (W/nf + 0.18u)'
+ ps='2*int((nf+2)/2) * (W/nf + 0.18u)' nrd='0.18u / W' nrs='0.18u / W' sa=0 sb=0 sd=0 m=1
XM14[10] VSS VSS VSS VSS nfet_03v3 L=6u W=2u nf=1 ad='int((nf+1)/2) * W/nf * 0.18u' as='int((nf+2)/2) * W/nf * 0.18u' pd='2*int((nf+1)/2) * (W/nf + 0.18u)'
+ ps='2*int((nf+2)/2) * (W/nf + 0.18u)' nrd='0.18u / W' nrs='0.18u / W' sa=0 sb=0 sd=0 m=1
XM14[11] VSS VSS VSS VSS nfet_03v3 L=6u W=2u nf=1 ad='int((nf+1)/2) * W/nf * 0.18u' as='int((nf+2)/2) * W/nf * 0.18u' pd='2*int((nf+1)/2) * (W/nf + 0.18u)'
+ ps='2*int((nf+2)/2) * (W/nf + 0.18u)' nrd='0.18u / W' nrs='0.18u / W' sa=0 sb=0 sd=0 m=1
XM14[12] VSS VSS VSS VSS nfet_03v3 L=6u W=2u nf=1 ad='int((nf+1)/2) * W/nf * 0.18u' as='int((nf+2)/2) * W/nf * 0.18u' pd='2*int((nf+1)/2) * (W/nf + 0.18u)'
+ ps='2*int((nf+2)/2) * (W/nf + 0.18u)' nrd='0.18u / W' nrs='0.18u / W' sa=0 sb=0 sd=0 m=1
XM14[13] VSS VSS VSS VSS nfet_03v3 L=6u W=2u nf=1 ad='int((nf+1)/2) * W/nf * 0.18u' as='int((nf+2)/2) * W/nf * 0.18u' pd='2*int((nf+1)/2) * (W/nf + 0.18u)'
+ ps='2*int((nf+2)/2) * (W/nf + 0.18u)' nrd='0.18u / W' nrs='0.18u / W' sa=0 sb=0 sd=0 m=1
XM14[14] VSS VSS VSS VSS nfet_03v3 L=6u W=2u nf=1 ad='int((nf+1)/2) * W/nf * 0.18u' as='int((nf+2)/2) * W/nf * 0.18u' pd='2*int((nf+1)/2) * (W/nf + 0.18u)'
+ ps='2*int((nf+2)/2) * (W/nf + 0.18u)' nrd='0.18u / W' nrs='0.18u / W' sa=0 sb=0 sd=0 m=1
XM14[15] VSS VSS VSS VSS nfet_03v3 L=6u W=2u nf=1 ad='int((nf+1)/2) * W/nf * 0.18u' as='int((nf+2)/2) * W/nf * 0.18u' pd='2*int((nf+1)/2) * (W/nf + 0.18u)'
+ ps='2*int((nf+2)/2) * (W/nf + 0.18u)' nrd='0.18u / W' nrs='0.18u / W' sa=0 sb=0 sd=0 m=1
XM14[16] VSS VSS VSS VSS nfet_03v3 L=6u W=2u nf=1 ad='int((nf+1)/2) * W/nf * 0.18u' as='int((nf+2)/2) * W/nf * 0.18u' pd='2*int((nf+1)/2) * (W/nf + 0.18u)'
+ ps='2*int((nf+2)/2) * (W/nf + 0.18u)' nrd='0.18u / W' nrs='0.18u / W' sa=0 sb=0 sd=0 m=1
XM14[17] VSS VSS VSS VSS nfet_03v3 L=6u W=2u nf=1 ad='int((nf+1)/2) * W/nf * 0.18u' as='int((nf+2)/2) * W/nf * 0.18u' pd='2*int((nf+1)/2) * (W/nf + 0.18u)'
+ ps='2*int((nf+2)/2) * (W/nf + 0.18u)' nrd='0.18u / W' nrs='0.18u / W' sa=0 sb=0 sd=0 m=1
XM14[18] VSS VSS VSS VSS nfet_03v3 L=6u W=2u nf=1 ad='int((nf+1)/2) * W/nf * 0.18u' as='int((nf+2)/2) * W/nf * 0.18u' pd='2*int((nf+1)/2) * (W/nf + 0.18u)'
+ ps='2*int((nf+2)/2) * (W/nf + 0.18u)' nrd='0.18u / W' nrs='0.18u / W' sa=0 sb=0 sd=0 m=1
XM14[19] VSS VSS VSS VSS nfet_03v3 L=6u W=2u nf=1 ad='int((nf+1)/2) * W/nf * 0.18u' as='int((nf+2)/2) * W/nf * 0.18u' pd='2*int((nf+1)/2) * (W/nf + 0.18u)'
+ ps='2*int((nf+2)/2) * (W/nf + 0.18u)' nrd='0.18u / W' nrs='0.18u / W' sa=0 sb=0 sd=0 m=1
XM14[20] VSS VSS VSS VSS nfet_03v3 L=6u W=2u nf=1 ad='int((nf+1)/2) * W/nf * 0.18u' as='int((nf+2)/2) * W/nf * 0.18u' pd='2*int((nf+1)/2) * (W/nf + 0.18u)'
+ ps='2*int((nf+2)/2) * (W/nf + 0.18u)' nrd='0.18u / W' nrs='0.18u / W' sa=0 sb=0 sd=0 m=1
XM15[1] VDD VDD VDD VDD pfet_03v3 L=6u W=2u nf=1 ad='int((nf+1)/2) * W/nf * 0.18u' as='int((nf+2)/2) * W/nf * 0.18u' pd='2*int((nf+1)/2) * (W/nf + 0.18u)'
+ ps='2*int((nf+2)/2) * (W/nf + 0.18u)' nrd='0.18u / W' nrs='0.18u / W' sa=0 sb=0 sd=0 m=1
XM15[2] VDD VDD VDD VDD pfet_03v3 L=6u W=2u nf=1 ad='int((nf+1)/2) * W/nf * 0.18u' as='int((nf+2)/2) * W/nf * 0.18u' pd='2*int((nf+1)/2) * (W/nf + 0.18u)'
+ ps='2*int((nf+2)/2) * (W/nf + 0.18u)' nrd='0.18u / W' nrs='0.18u / W' sa=0 sb=0 sd=0 m=1
XM15[3] VDD VDD VDD VDD pfet_03v3 L=6u W=2u nf=1 ad='int((nf+1)/2) * W/nf * 0.18u' as='int((nf+2)/2) * W/nf * 0.18u' pd='2*int((nf+1)/2) * (W/nf + 0.18u)'
+ ps='2*int((nf+2)/2) * (W/nf + 0.18u)' nrd='0.18u / W' nrs='0.18u / W' sa=0 sb=0 sd=0 m=1
XM15[4] VDD VDD VDD VDD pfet_03v3 L=6u W=2u nf=1 ad='int((nf+1)/2) * W/nf * 0.18u' as='int((nf+2)/2) * W/nf * 0.18u' pd='2*int((nf+1)/2) * (W/nf + 0.18u)'
+ ps='2*int((nf+2)/2) * (W/nf + 0.18u)' nrd='0.18u / W' nrs='0.18u / W' sa=0 sb=0 sd=0 m=1
XM15[5] VDD VDD VDD VDD pfet_03v3 L=6u W=2u nf=1 ad='int((nf+1)/2) * W/nf * 0.18u' as='int((nf+2)/2) * W/nf * 0.18u' pd='2*int((nf+1)/2) * (W/nf + 0.18u)'
+ ps='2*int((nf+2)/2) * (W/nf + 0.18u)' nrd='0.18u / W' nrs='0.18u / W' sa=0 sb=0 sd=0 m=1
XM15[6] VDD VDD VDD VDD pfet_03v3 L=6u W=2u nf=1 ad='int((nf+1)/2) * W/nf * 0.18u' as='int((nf+2)/2) * W/nf * 0.18u' pd='2*int((nf+1)/2) * (W/nf + 0.18u)'
+ ps='2*int((nf+2)/2) * (W/nf + 0.18u)' nrd='0.18u / W' nrs='0.18u / W' sa=0 sb=0 sd=0 m=1
XM15[7] VDD VDD VDD VDD pfet_03v3 L=6u W=2u nf=1 ad='int((nf+1)/2) * W/nf * 0.18u' as='int((nf+2)/2) * W/nf * 0.18u' pd='2*int((nf+1)/2) * (W/nf + 0.18u)'
+ ps='2*int((nf+2)/2) * (W/nf + 0.18u)' nrd='0.18u / W' nrs='0.18u / W' sa=0 sb=0 sd=0 m=1
XM15[8] VDD VDD VDD VDD pfet_03v3 L=6u W=2u nf=1 ad='int((nf+1)/2) * W/nf * 0.18u' as='int((nf+2)/2) * W/nf * 0.18u' pd='2*int((nf+1)/2) * (W/nf + 0.18u)'
+ ps='2*int((nf+2)/2) * (W/nf + 0.18u)' nrd='0.18u / W' nrs='0.18u / W' sa=0 sb=0 sd=0 m=1
XM15[9] VDD VDD VDD VDD pfet_03v3 L=6u W=2u nf=1 ad='int((nf+1)/2) * W/nf * 0.18u' as='int((nf+2)/2) * W/nf * 0.18u' pd='2*int((nf+1)/2) * (W/nf + 0.18u)'
+ ps='2*int((nf+2)/2) * (W/nf + 0.18u)' nrd='0.18u / W' nrs='0.18u / W' sa=0 sb=0 sd=0 m=1
XM15[10] VDD VDD VDD VDD pfet_03v3 L=6u W=2u nf=1 ad='int((nf+1)/2) * W/nf * 0.18u' as='int((nf+2)/2) * W/nf * 0.18u' pd='2*int((nf+1)/2) * (W/nf + 0.18u)'
+ ps='2*int((nf+2)/2) * (W/nf + 0.18u)' nrd='0.18u / W' nrs='0.18u / W' sa=0 sb=0 sd=0 m=1
XM15[11] VDD VDD VDD VDD pfet_03v3 L=6u W=2u nf=1 ad='int((nf+1)/2) * W/nf * 0.18u' as='int((nf+2)/2) * W/nf * 0.18u' pd='2*int((nf+1)/2) * (W/nf + 0.18u)'
+ ps='2*int((nf+2)/2) * (W/nf + 0.18u)' nrd='0.18u / W' nrs='0.18u / W' sa=0 sb=0 sd=0 m=1
XM15[12] VDD VDD VDD VDD pfet_03v3 L=6u W=2u nf=1 ad='int((nf+1)/2) * W/nf * 0.18u' as='int((nf+2)/2) * W/nf * 0.18u' pd='2*int((nf+1)/2) * (W/nf + 0.18u)'
+ ps='2*int((nf+2)/2) * (W/nf + 0.18u)' nrd='0.18u / W' nrs='0.18u / W' sa=0 sb=0 sd=0 m=1
XM15[13] VDD VDD VDD VDD pfet_03v3 L=6u W=2u nf=1 ad='int((nf+1)/2) * W/nf * 0.18u' as='int((nf+2)/2) * W/nf * 0.18u' pd='2*int((nf+1)/2) * (W/nf + 0.18u)'
+ ps='2*int((nf+2)/2) * (W/nf + 0.18u)' nrd='0.18u / W' nrs='0.18u / W' sa=0 sb=0 sd=0 m=1
XM15[14] VDD VDD VDD VDD pfet_03v3 L=6u W=2u nf=1 ad='int((nf+1)/2) * W/nf * 0.18u' as='int((nf+2)/2) * W/nf * 0.18u' pd='2*int((nf+1)/2) * (W/nf + 0.18u)'
+ ps='2*int((nf+2)/2) * (W/nf + 0.18u)' nrd='0.18u / W' nrs='0.18u / W' sa=0 sb=0 sd=0 m=1
XM15[15] VDD VDD VDD VDD pfet_03v3 L=6u W=2u nf=1 ad='int((nf+1)/2) * W/nf * 0.18u' as='int((nf+2)/2) * W/nf * 0.18u' pd='2*int((nf+1)/2) * (W/nf + 0.18u)'
+ ps='2*int((nf+2)/2) * (W/nf + 0.18u)' nrd='0.18u / W' nrs='0.18u / W' sa=0 sb=0 sd=0 m=1
XM15[16] VDD VDD VDD VDD pfet_03v3 L=6u W=2u nf=1 ad='int((nf+1)/2) * W/nf * 0.18u' as='int((nf+2)/2) * W/nf * 0.18u' pd='2*int((nf+1)/2) * (W/nf + 0.18u)'
+ ps='2*int((nf+2)/2) * (W/nf + 0.18u)' nrd='0.18u / W' nrs='0.18u / W' sa=0 sb=0 sd=0 m=1
XM15[17] VDD VDD VDD VDD pfet_03v3 L=6u W=2u nf=1 ad='int((nf+1)/2) * W/nf * 0.18u' as='int((nf+2)/2) * W/nf * 0.18u' pd='2*int((nf+1)/2) * (W/nf + 0.18u)'
+ ps='2*int((nf+2)/2) * (W/nf + 0.18u)' nrd='0.18u / W' nrs='0.18u / W' sa=0 sb=0 sd=0 m=1
XM15[18] VDD VDD VDD VDD pfet_03v3 L=6u W=2u nf=1 ad='int((nf+1)/2) * W/nf * 0.18u' as='int((nf+2)/2) * W/nf * 0.18u' pd='2*int((nf+1)/2) * (W/nf + 0.18u)'
+ ps='2*int((nf+2)/2) * (W/nf + 0.18u)' nrd='0.18u / W' nrs='0.18u / W' sa=0 sb=0 sd=0 m=1
.ends


* expanding   symbol:  CurrentMirrors/CM_nfets.sym # of pins=4
** sym_path: /home/lci-ufsc/Desktop/Bracolin/TIA_Filter/CurrentMirrors/CM_nfets.sym
** sch_path: /home/lci-ufsc/Desktop/Bracolin/TIA_Filter/CurrentMirrors/CM_nfets.sch
.subckt CM_nfets IN OUT1 OUT2 VSS
*.iopin IN
*.iopin OUT1
*.iopin OUT2
*.iopin VSS
XM2[1] IN IN VSS VSS nfet_03v3 L=2u W=2u nf=1 ad='int((nf+1)/2) * W/nf * 0.18u' as='int((nf+2)/2) * W/nf * 0.18u' pd='2*int((nf+1)/2) * (W/nf + 0.18u)'
+ ps='2*int((nf+2)/2) * (W/nf + 0.18u)' nrd='0.18u / W' nrs='0.18u / W' sa=0 sb=0 sd=0 m=1
XM2[2] IN IN VSS VSS nfet_03v3 L=2u W=2u nf=1 ad='int((nf+1)/2) * W/nf * 0.18u' as='int((nf+2)/2) * W/nf * 0.18u' pd='2*int((nf+1)/2) * (W/nf + 0.18u)'
+ ps='2*int((nf+2)/2) * (W/nf + 0.18u)' nrd='0.18u / W' nrs='0.18u / W' sa=0 sb=0 sd=0 m=1
XM2[3] IN IN VSS VSS nfet_03v3 L=2u W=2u nf=1 ad='int((nf+1)/2) * W/nf * 0.18u' as='int((nf+2)/2) * W/nf * 0.18u' pd='2*int((nf+1)/2) * (W/nf + 0.18u)'
+ ps='2*int((nf+2)/2) * (W/nf + 0.18u)' nrd='0.18u / W' nrs='0.18u / W' sa=0 sb=0 sd=0 m=1
XM2[4] IN IN VSS VSS nfet_03v3 L=2u W=2u nf=1 ad='int((nf+1)/2) * W/nf * 0.18u' as='int((nf+2)/2) * W/nf * 0.18u' pd='2*int((nf+1)/2) * (W/nf + 0.18u)'
+ ps='2*int((nf+2)/2) * (W/nf + 0.18u)' nrd='0.18u / W' nrs='0.18u / W' sa=0 sb=0 sd=0 m=1
XM2[5] IN IN VSS VSS nfet_03v3 L=2u W=2u nf=1 ad='int((nf+1)/2) * W/nf * 0.18u' as='int((nf+2)/2) * W/nf * 0.18u' pd='2*int((nf+1)/2) * (W/nf + 0.18u)'
+ ps='2*int((nf+2)/2) * (W/nf + 0.18u)' nrd='0.18u / W' nrs='0.18u / W' sa=0 sb=0 sd=0 m=1
XM2[6] IN IN VSS VSS nfet_03v3 L=2u W=2u nf=1 ad='int((nf+1)/2) * W/nf * 0.18u' as='int((nf+2)/2) * W/nf * 0.18u' pd='2*int((nf+1)/2) * (W/nf + 0.18u)'
+ ps='2*int((nf+2)/2) * (W/nf + 0.18u)' nrd='0.18u / W' nrs='0.18u / W' sa=0 sb=0 sd=0 m=1
XM2 OUT1 IN net3 VSS nfet_03v3 L=2u W=2u nf=1 ad='int((nf+1)/2) * W/nf * 0.18u' as='int((nf+2)/2) * W/nf * 0.18u' pd='2*int((nf+1)/2) * (W/nf + 0.18u)'
+ ps='2*int((nf+2)/2) * (W/nf + 0.18u)' nrd='0.18u / W' nrs='0.18u / W' sa=0 sb=0 sd=0 m=1
XM11 net4 IN net6 VSS nfet_03v3 L=2u W=2u nf=1 ad='int((nf+1)/2) * W/nf * 0.18u' as='int((nf+2)/2) * W/nf * 0.18u' pd='2*int((nf+1)/2) * (W/nf + 0.18u)'
+ ps='2*int((nf+2)/2) * (W/nf + 0.18u)' nrd='0.18u / W' nrs='0.18u / W' sa=0 sb=0 sd=0 m=1
XM12 net6 IN net7 VSS nfet_03v3 L=2u W=2u nf=1 ad='int((nf+1)/2) * W/nf * 0.18u' as='int((nf+2)/2) * W/nf * 0.18u' pd='2*int((nf+1)/2) * (W/nf + 0.18u)'
+ ps='2*int((nf+2)/2) * (W/nf + 0.18u)' nrd='0.18u / W' nrs='0.18u / W' sa=0 sb=0 sd=0 m=1
XM13 net7 IN net8 VSS nfet_03v3 L=2u W=2u nf=1 ad='int((nf+1)/2) * W/nf * 0.18u' as='int((nf+2)/2) * W/nf * 0.18u' pd='2*int((nf+1)/2) * (W/nf + 0.18u)'
+ ps='2*int((nf+2)/2) * (W/nf + 0.18u)' nrd='0.18u / W' nrs='0.18u / W' sa=0 sb=0 sd=0 m=1
XM14 net8 IN net9 VSS nfet_03v3 L=2u W=2u nf=1 ad='int((nf+1)/2) * W/nf * 0.18u' as='int((nf+2)/2) * W/nf * 0.18u' pd='2*int((nf+1)/2) * (W/nf + 0.18u)'
+ ps='2*int((nf+2)/2) * (W/nf + 0.18u)' nrd='0.18u / W' nrs='0.18u / W' sa=0 sb=0 sd=0 m=1
XM15 net9 IN net10 VSS nfet_03v3 L=2u W=2u nf=1 ad='int((nf+1)/2) * W/nf * 0.18u' as='int((nf+2)/2) * W/nf * 0.18u' pd='2*int((nf+1)/2) * (W/nf + 0.18u)'
+ ps='2*int((nf+2)/2) * (W/nf + 0.18u)' nrd='0.18u / W' nrs='0.18u / W' sa=0 sb=0 sd=0 m=1
XM16 net10 IN net11 VSS nfet_03v3 L=2u W=2u nf=1 ad='int((nf+1)/2) * W/nf * 0.18u' as='int((nf+2)/2) * W/nf * 0.18u' pd='2*int((nf+1)/2) * (W/nf + 0.18u)'
+ ps='2*int((nf+2)/2) * (W/nf + 0.18u)' nrd='0.18u / W' nrs='0.18u / W' sa=0 sb=0 sd=0 m=1
XM17 net11 IN net12 VSS nfet_03v3 L=2u W=2u nf=1 ad='int((nf+1)/2) * W/nf * 0.18u' as='int((nf+2)/2) * W/nf * 0.18u' pd='2*int((nf+1)/2) * (W/nf + 0.18u)'
+ ps='2*int((nf+2)/2) * (W/nf + 0.18u)' nrd='0.18u / W' nrs='0.18u / W' sa=0 sb=0 sd=0 m=1
XM18 net12 IN net13 VSS nfet_03v3 L=2u W=2u nf=1 ad='int((nf+1)/2) * W/nf * 0.18u' as='int((nf+2)/2) * W/nf * 0.18u' pd='2*int((nf+1)/2) * (W/nf + 0.18u)'
+ ps='2*int((nf+2)/2) * (W/nf + 0.18u)' nrd='0.18u / W' nrs='0.18u / W' sa=0 sb=0 sd=0 m=1
XM19 net13 IN net14 VSS nfet_03v3 L=2u W=2u nf=1 ad='int((nf+1)/2) * W/nf * 0.18u' as='int((nf+2)/2) * W/nf * 0.18u' pd='2*int((nf+1)/2) * (W/nf + 0.18u)'
+ ps='2*int((nf+2)/2) * (W/nf + 0.18u)' nrd='0.18u / W' nrs='0.18u / W' sa=0 sb=0 sd=0 m=1
XM20 net14 IN net1 VSS nfet_03v3 L=2u W=2u nf=1 ad='int((nf+1)/2) * W/nf * 0.18u' as='int((nf+2)/2) * W/nf * 0.18u' pd='2*int((nf+1)/2) * (W/nf + 0.18u)'
+ ps='2*int((nf+2)/2) * (W/nf + 0.18u)' nrd='0.18u / W' nrs='0.18u / W' sa=0 sb=0 sd=0 m=1
XM21 net1 IN net15 VSS nfet_03v3 L=2u W=2u nf=1 ad='int((nf+1)/2) * W/nf * 0.18u' as='int((nf+2)/2) * W/nf * 0.18u' pd='2*int((nf+1)/2) * (W/nf + 0.18u)'
+ ps='2*int((nf+2)/2) * (W/nf + 0.18u)' nrd='0.18u / W' nrs='0.18u / W' sa=0 sb=0 sd=0 m=1
XM22 net15 IN net16 VSS nfet_03v3 L=2u W=2u nf=1 ad='int((nf+1)/2) * W/nf * 0.18u' as='int((nf+2)/2) * W/nf * 0.18u' pd='2*int((nf+1)/2) * (W/nf + 0.18u)'
+ ps='2*int((nf+2)/2) * (W/nf + 0.18u)' nrd='0.18u / W' nrs='0.18u / W' sa=0 sb=0 sd=0 m=1
XM23 net16 IN net17 VSS nfet_03v3 L=2u W=2u nf=1 ad='int((nf+1)/2) * W/nf * 0.18u' as='int((nf+2)/2) * W/nf * 0.18u' pd='2*int((nf+1)/2) * (W/nf + 0.18u)'
+ ps='2*int((nf+2)/2) * (W/nf + 0.18u)' nrd='0.18u / W' nrs='0.18u / W' sa=0 sb=0 sd=0 m=1
XM24 net17 IN net18 VSS nfet_03v3 L=2u W=2u nf=1 ad='int((nf+1)/2) * W/nf * 0.18u' as='int((nf+2)/2) * W/nf * 0.18u' pd='2*int((nf+1)/2) * (W/nf + 0.18u)'
+ ps='2*int((nf+2)/2) * (W/nf + 0.18u)' nrd='0.18u / W' nrs='0.18u / W' sa=0 sb=0 sd=0 m=1
XM25 net18 IN net19 VSS nfet_03v3 L=2u W=2u nf=1 ad='int((nf+1)/2) * W/nf * 0.18u' as='int((nf+2)/2) * W/nf * 0.18u' pd='2*int((nf+1)/2) * (W/nf + 0.18u)'
+ ps='2*int((nf+2)/2) * (W/nf + 0.18u)' nrd='0.18u / W' nrs='0.18u / W' sa=0 sb=0 sd=0 m=1
XM26 net19 IN net20 VSS nfet_03v3 L=2u W=2u nf=1 ad='int((nf+1)/2) * W/nf * 0.18u' as='int((nf+2)/2) * W/nf * 0.18u' pd='2*int((nf+1)/2) * (W/nf + 0.18u)'
+ ps='2*int((nf+2)/2) * (W/nf + 0.18u)' nrd='0.18u / W' nrs='0.18u / W' sa=0 sb=0 sd=0 m=1
XM27 net20 IN net21 VSS nfet_03v3 L=2u W=2u nf=1 ad='int((nf+1)/2) * W/nf * 0.18u' as='int((nf+2)/2) * W/nf * 0.18u' pd='2*int((nf+1)/2) * (W/nf + 0.18u)'
+ ps='2*int((nf+2)/2) * (W/nf + 0.18u)' nrd='0.18u / W' nrs='0.18u / W' sa=0 sb=0 sd=0 m=1
XM28 net21 IN net22 VSS nfet_03v3 L=2u W=2u nf=1 ad='int((nf+1)/2) * W/nf * 0.18u' as='int((nf+2)/2) * W/nf * 0.18u' pd='2*int((nf+1)/2) * (W/nf + 0.18u)'
+ ps='2*int((nf+2)/2) * (W/nf + 0.18u)' nrd='0.18u / W' nrs='0.18u / W' sa=0 sb=0 sd=0 m=1
XM29 net22 IN net23 VSS nfet_03v3 L=2u W=2u nf=1 ad='int((nf+1)/2) * W/nf * 0.18u' as='int((nf+2)/2) * W/nf * 0.18u' pd='2*int((nf+1)/2) * (W/nf + 0.18u)'
+ ps='2*int((nf+2)/2) * (W/nf + 0.18u)' nrd='0.18u / W' nrs='0.18u / W' sa=0 sb=0 sd=0 m=1
XM30 net23 IN net2 VSS nfet_03v3 L=2u W=2u nf=1 ad='int((nf+1)/2) * W/nf * 0.18u' as='int((nf+2)/2) * W/nf * 0.18u' pd='2*int((nf+1)/2) * (W/nf + 0.18u)'
+ ps='2*int((nf+2)/2) * (W/nf + 0.18u)' nrd='0.18u / W' nrs='0.18u / W' sa=0 sb=0 sd=0 m=1
XM31 net2 IN net24 VSS nfet_03v3 L=2u W=2u nf=1 ad='int((nf+1)/2) * W/nf * 0.18u' as='int((nf+2)/2) * W/nf * 0.18u' pd='2*int((nf+1)/2) * (W/nf + 0.18u)'
+ ps='2*int((nf+2)/2) * (W/nf + 0.18u)' nrd='0.18u / W' nrs='0.18u / W' sa=0 sb=0 sd=0 m=1
XM32 net24 IN net25 VSS nfet_03v3 L=2u W=2u nf=1 ad='int((nf+1)/2) * W/nf * 0.18u' as='int((nf+2)/2) * W/nf * 0.18u' pd='2*int((nf+1)/2) * (W/nf + 0.18u)'
+ ps='2*int((nf+2)/2) * (W/nf + 0.18u)' nrd='0.18u / W' nrs='0.18u / W' sa=0 sb=0 sd=0 m=1
XM33 net25 IN net26 VSS nfet_03v3 L=2u W=2u nf=1 ad='int((nf+1)/2) * W/nf * 0.18u' as='int((nf+2)/2) * W/nf * 0.18u' pd='2*int((nf+1)/2) * (W/nf + 0.18u)'
+ ps='2*int((nf+2)/2) * (W/nf + 0.18u)' nrd='0.18u / W' nrs='0.18u / W' sa=0 sb=0 sd=0 m=1
XM34 net26 IN net27 VSS nfet_03v3 L=2u W=2u nf=1 ad='int((nf+1)/2) * W/nf * 0.18u' as='int((nf+2)/2) * W/nf * 0.18u' pd='2*int((nf+1)/2) * (W/nf + 0.18u)'
+ ps='2*int((nf+2)/2) * (W/nf + 0.18u)' nrd='0.18u / W' nrs='0.18u / W' sa=0 sb=0 sd=0 m=1