* NGSPICE file created from FC_top.ext - technology: gf180mcuD

.subckt FC_top VP VN VOUT IREF AVSS AVDD
X0 AVDD AVDD AVDD AVDD pfet_03v3 ad=0.84p pd=2.84u as=0 ps=0 w=2u l=2u
X1 AVSS AVSS AVSS AVSS nfet_03v3 ad=1.22p pd=5.22u as=0 ps=0 w=2u l=2u
X2 AVDD a_5396_n6451# a_5396_8177# AVDD pfet_03v3 ad=0.84p pd=2.84u as=0.84p ps=2.84u w=2u l=2u
X3 a_n11737_n15980# IREF AVDD AVDD pfet_03v3 ad=1.3p pd=5.3u as=0.84p ps=2.84u w=2u l=2u
X4 AVDD IREF a_n13990_8177# AVDD pfet_03v3 ad=0.84p pd=2.84u as=0.84p ps=2.84u w=2u l=2u
X5 a_5396_8177# a_n11317_n20927# a_5396_n6451# AVDD pfet_03v3 ad=0.84p pd=2.84u as=0.84p ps=2.84u w=2u l=2u
X6 AVDD AVDD AVDD AVDD pfet_03v3 ad=0.84p pd=2.84u as=0 ps=0 w=2u l=2u
X7 a_5396_8177# a_5396_n6451# AVDD AVDD pfet_03v3 ad=0.84p pd=2.84u as=1.3p ps=5.3u w=2u l=2u
X8 AVDD AVDD AVDD AVDD pfet_03v3 ad=0.78p pd=3.7u as=0 ps=0 w=1.2u l=2u
X9 AVDD IREF a_n13990_8177# AVDD pfet_03v3 ad=0.84p pd=2.84u as=1.3p ps=5.3u w=2u l=2u
X10 AVDD IREF a_n13990_8177# AVDD pfet_03v3 ad=0.84p pd=2.84u as=0.84p ps=2.84u w=2u l=2u
X11 a_n13990_8177# VP a_n13990_n6451# AVDD pfet_03v3 ad=0.84p pd=2.84u as=0.84p ps=2.84u w=2u l=2u
X12 a_n13990_n5465# VN a_n13990_8177# AVDD pfet_03v3 ad=1.3p pd=5.3u as=0.84p ps=2.84u w=2u l=2u
X13 VOUT a_n11317_n20927# a_5396_9163# AVDD pfet_03v3 ad=1.3p pd=5.3u as=0.84p ps=2.84u w=2u l=2u
X14 a_n13990_n5465# VN a_n13990_8177# AVDD pfet_03v3 ad=1.3p pd=5.3u as=0.84p ps=2.84u w=2u l=2u
X15 AVDD IREF a_n13990_8177# AVDD pfet_03v3 ad=0.84p pd=2.84u as=1.3p ps=5.3u w=2u l=2u
X16 a_n13990_n6451# VP a_n13990_8177# AVDD pfet_03v3 ad=1.3p pd=5.3u as=0.84p ps=2.84u w=2u l=2u
X17 a_5396_8177# a_n11317_n20927# a_5396_n6451# AVDD pfet_03v3 ad=0.84p pd=2.84u as=0.84p ps=2.84u w=2u l=2u
X18 AVDD AVDD AVDD AVDD pfet_03v3 ad=0.84p pd=2.84u as=0 ps=0 w=2u l=2u
X19 a_n13990_8177# VP a_n13990_n6451# AVDD pfet_03v3 ad=0.84p pd=2.84u as=0.84p ps=2.84u w=2u l=2u
X20 a_n13990_n5465# VN a_n13990_8177# AVDD pfet_03v3 ad=1.3p pd=5.3u as=0.84p ps=2.84u w=2u l=2u
X21 AVDD IREF a_n13990_8177# AVDD pfet_03v3 ad=0.84p pd=2.84u as=1.3p ps=5.3u w=2u l=2u
X22 AVDD AVDD AVDD AVDD pfet_03v3 ad=1.3p pd=5.3u as=0 ps=0 w=2u l=2u
X23 AVDD AVDD AVDD AVDD pfet_03v3 ad=0.84p pd=2.84u as=0 ps=0 w=2u l=2u
X24 a_n11737_n15980# IREF AVDD AVDD pfet_03v3 ad=1.3p pd=5.3u as=0.84p ps=2.84u w=2u l=2u
X25 a_n13990_8177# IREF AVDD AVDD pfet_03v3 ad=0.84p pd=2.84u as=0.84p ps=2.84u w=2u l=2u
X26 a_n13990_8177# IREF AVDD AVDD pfet_03v3 ad=0.84p pd=2.84u as=0.84p ps=2.84u w=2u l=2u
X27 AVDD AVDD AVDD AVDD pfet_03v3 ad=0.84p pd=2.84u as=0 ps=0 w=2u l=2u
X28 AVDD AVDD AVDD AVDD pfet_03v3 ad=0.84p pd=2.84u as=0 ps=0 w=2u l=2u
X29 AVSS AVSS AVSS AVSS nfet_03v3 ad=1.22p pd=5.22u as=0 ps=0 w=2u l=2u
X30 AVDD a_5396_n6451# a_5396_9163# AVDD pfet_03v3 ad=0.84p pd=2.84u as=1.3p ps=5.3u w=2u l=2u
X31 AVDD AVDD AVDD AVDD pfet_03v3 ad=0.84p pd=2.84u as=0 ps=0 w=2u l=2u
X32 a_5396_9163# a_5396_n6451# AVDD AVDD pfet_03v3 ad=1.3p pd=5.3u as=0.84p ps=2.84u w=2u l=2u
X33 a_5396_9163# a_5396_n6451# AVDD AVDD pfet_03v3 ad=1.3p pd=5.3u as=0.84p ps=2.84u w=2u l=2u
X34 AVDD AVDD AVDD AVDD pfet_03v3 ad=1.3p pd=5.3u as=0 ps=0 w=2u l=2u
X35 AVDD IREF IREF AVDD pfet_03v3 ad=0.84p pd=2.84u as=0.84p ps=2.84u w=2u l=2u
X36 AVDD AVDD AVDD AVDD pfet_03v3 ad=0.84p pd=2.84u as=0 ps=0 w=2u l=2u
X37 AVDD a_5396_n6451# a_5396_9163# AVDD pfet_03v3 ad=0.84p pd=2.84u as=1.3p ps=5.3u w=2u l=2u
X38 AVDD IREF a_n13990_8177# AVDD pfet_03v3 ad=0.84p pd=2.84u as=1.3p ps=5.3u w=2u l=2u
X39 VOUT a_n11317_n20927# a_5396_9163# AVDD pfet_03v3 ad=0.84p pd=2.84u as=0.84p ps=2.84u w=2u l=2u
X40 AVDD AVDD AVDD AVDD pfet_03v3 ad=1.3p pd=5.3u as=0 ps=0 w=2u l=2u
X41 a_n13990_n6451# VP a_n13990_8177# AVDD pfet_03v3 ad=0.84p pd=2.84u as=0.84p ps=2.84u w=2u l=2u
X42 a_5396_n6451# a_n11317_n20927# a_5396_8177# AVDD pfet_03v3 ad=0.84p pd=2.84u as=0.84p ps=2.84u w=2u l=2u
X43 a_n11737_n15980# IREF AVDD AVDD pfet_03v3 ad=0.84p pd=2.84u as=0.84p ps=2.84u w=2u l=2u
X44 AVSS AVSS AVSS AVSS nfet_03v3 ad=0.732p pd=3.62u as=0 ps=0 w=1.2u l=2u
X45 AVSS AVSS AVSS AVSS nfet_03v3 ad=1.22p pd=5.22u as=0 ps=0 w=2u l=2u
X46 AVDD IREF a_n11737_n14973# AVDD pfet_03v3 ad=0.84p pd=2.84u as=1.3p ps=5.3u w=2u l=2u
X47 AVDD AVDD AVDD AVDD pfet_03v3 ad=1.3p pd=5.3u as=0 ps=0 w=2u l=2u
X48 a_n13990_n5465# VN a_n13990_8177# AVDD pfet_03v3 ad=0.84p pd=2.84u as=0.84p ps=2.84u w=2u l=2u
X49 AVDD AVDD AVDD AVDD pfet_03v3 ad=0.84p pd=2.84u as=0 ps=0 w=2u l=2u
X50 AVDD AVDD AVDD AVDD pfet_03v3 ad=0.84p pd=2.84u as=0 ps=0 w=2u l=2u
X51 AVSS a_n11737_n14973# a_n13990_n5465# AVSS nfet_03v3 ad=0.8p pd=2.8u as=1.22p ps=5.22u w=2u l=2u
X52 AVDD AVDD AVDD AVDD pfet_03v3 ad=1.3p pd=5.3u as=0 ps=0 w=2u l=2u
X53 AVDD AVDD AVDD AVDD pfet_03v3 ad=0.84p pd=2.84u as=0 ps=0 w=2u l=2u
X54 a_n13990_n5465# a_n11737_n14973# AVSS AVSS nfet_03v3 ad=0.8p pd=2.8u as=0.8p ps=2.8u w=2u l=2u
X55 a_5396_8177# a_n11317_n20927# a_5396_n6451# AVDD pfet_03v3 ad=0.84p pd=2.84u as=1.3p ps=5.3u w=2u l=2u
X56 AVSS AVSS AVSS AVSS nfet_03v3 ad=1.22p pd=5.22u as=0 ps=0 w=2u l=2u
X57 a_5396_8177# a_5396_n6451# AVDD AVDD pfet_03v3 ad=0.84p pd=2.84u as=0.84p ps=2.84u w=2u l=2u
X58 a_n1533_n15598# a_n11317_n20927# a_n2101_n15598# AVDD pfet_03v3 ad=0.504p pd=2.04u as=0.504p ps=2.04u w=1.2u l=2u
X59 a_5396_8177# a_5396_n6451# AVDD AVDD pfet_03v3 ad=0.84p pd=2.84u as=0.84p ps=2.84u w=2u l=2u
X60 AVDD a_5396_n6451# a_5396_9163# AVDD pfet_03v3 ad=0.84p pd=2.84u as=1.3p ps=5.3u w=2u l=2u
X61 a_n13990_8177# IREF AVDD AVDD pfet_03v3 ad=1.3p pd=5.3u as=0.84p ps=2.84u w=2u l=2u
X62 AVDD AVDD AVDD AVDD pfet_03v3 ad=1.3p pd=5.3u as=0 ps=0 w=2u l=2u
X63 VOUT a_n11317_n20927# a_5396_9163# AVDD pfet_03v3 ad=1.3p pd=5.3u as=0.84p ps=2.84u w=2u l=2u
X64 a_5396_8177# a_n11317_n20927# a_5396_n6451# AVDD pfet_03v3 ad=0.84p pd=2.84u as=0.84p ps=2.84u w=2u l=2u
X65 AVDD AVDD AVDD AVDD pfet_03v3 ad=0.84p pd=2.84u as=0 ps=0 w=2u l=2u
X66 a_n13990_n5465# a_n11737_n14973# AVSS AVSS nfet_03v3 ad=1.22p pd=5.22u as=0.8p ps=2.8u w=2u l=2u
X67 AVDD IREF a_n11737_n15980# AVDD pfet_03v3 ad=0.84p pd=2.84u as=1.3p ps=5.3u w=2u l=2u
X68 a_n13990_n5465# a_n11737_n14973# AVSS AVSS nfet_03v3 ad=0.8p pd=2.8u as=1.22p ps=5.22u w=2u l=2u
X69 a_n13990_n5465# VN a_n13990_8177# AVDD pfet_03v3 ad=0.84p pd=2.84u as=0.84p ps=2.84u w=2u l=2u
X70 AVDD AVDD AVDD AVDD pfet_03v3 ad=0.84p pd=2.84u as=0 ps=0 w=2u l=2u
X71 a_n13990_8177# IREF AVDD AVDD pfet_03v3 ad=1.3p pd=5.3u as=0.84p ps=2.84u w=2u l=2u
X72 AVDD IREF a_n13990_8177# AVDD pfet_03v3 ad=0.84p pd=2.84u as=1.3p ps=5.3u w=2u l=2u
X73 a_5396_n6451# a_n11317_n20927# a_5396_8177# AVDD pfet_03v3 ad=1.3p pd=5.3u as=0.84p ps=2.84u w=2u l=2u
X74 a_5396_n6451# a_n11317_n20927# a_5396_8177# AVDD pfet_03v3 ad=0.84p pd=2.84u as=1.3p ps=5.3u w=2u l=2u
X75 a_5396_9163# a_n11317_n20927# VOUT AVDD pfet_03v3 ad=0.84p pd=2.84u as=0.84p ps=2.84u w=2u l=2u
X76 AVSS AVSS AVSS AVSS nfet_03v3 ad=1.22p pd=5.22u as=0 ps=0 w=2u l=2u
X77 a_n13990_n5465# a_n11737_n14973# AVSS AVSS nfet_03v3 ad=0.8p pd=2.8u as=0.8p ps=2.8u w=2u l=2u
X78 a_n13990_n6451# a_n11737_n15980# a_5396_n6451# AVSS nfet_03v3 ad=0.8p pd=2.8u as=0.8p ps=2.8u w=2u l=2u
X79 a_n11317_n20927# a_n11737_n14973# AVSS AVSS nfet_03v3 ad=1.3725p pd=5.72u as=0.9p ps=3.05u w=2.25u l=2u
X80 AVDD AVDD AVDD AVDD pfet_03v3 ad=1.3p pd=5.3u as=0 ps=0 w=2u l=2u
X81 VOUT a_n11317_n20927# a_5396_9163# AVDD pfet_03v3 ad=1.3p pd=5.3u as=0.84p ps=2.84u w=2u l=2u
X82 a_n13990_8177# VP a_n13990_n6451# AVDD pfet_03v3 ad=0.84p pd=2.84u as=0.84p ps=2.84u w=2u l=2u
X83 AVDD AVDD AVDD AVDD pfet_03v3 ad=1.3p pd=5.3u as=0 ps=0 w=2u l=2u
X84 AVDD AVDD AVDD AVDD pfet_03v3 ad=1.3p pd=5.3u as=0 ps=0 w=2u l=2u
X85 a_5396_n6451# a_n11317_n20927# a_5396_8177# AVDD pfet_03v3 ad=1.3p pd=5.3u as=0.84p ps=2.84u w=2u l=2u
X86 AVDD a_5396_n6451# a_5396_8177# AVDD pfet_03v3 ad=0.84p pd=2.84u as=0.84p ps=2.84u w=2u l=2u
X87 a_n13990_8177# IREF AVDD AVDD pfet_03v3 ad=0.84p pd=2.84u as=0.84p ps=2.84u w=2u l=2u
X88 a_5396_9163# a_n11317_n20927# VOUT AVDD pfet_03v3 ad=0.84p pd=2.84u as=0.84p ps=2.84u w=2u l=2u
X89 AVDD AVDD AVDD AVDD pfet_03v3 ad=0.84p pd=2.84u as=0 ps=0 w=2u l=2u
X90 a_5396_n6451# a_n11317_n20927# a_5396_8177# AVDD pfet_03v3 ad=0.84p pd=2.84u as=1.3p ps=5.3u w=2u l=2u
X91 AVDD AVDD AVDD AVDD pfet_03v3 ad=0.84p pd=2.84u as=0 ps=0 w=2u l=2u
X92 a_5396_8177# a_5396_n6451# AVDD AVDD pfet_03v3 ad=0.84p pd=2.84u as=0.84p ps=2.84u w=2u l=2u
X93 AVDD a_5396_n6451# a_5396_9163# AVDD pfet_03v3 ad=0.84p pd=2.84u as=1.3p ps=5.3u w=2u l=2u
X94 AVDD AVDD AVDD AVDD pfet_03v3 ad=1.3p pd=5.3u as=0 ps=0 w=2u l=2u
X95 AVDD a_5396_n6451# a_5396_9163# AVDD pfet_03v3 ad=1.3p pd=5.3u as=0.84p ps=2.84u w=2u l=2u
X96 a_n13990_8177# VP a_n13990_n6451# AVDD pfet_03v3 ad=0.84p pd=2.84u as=1.3p ps=5.3u w=2u l=2u
X97 AVDD AVDD AVDD AVDD pfet_03v3 ad=0.84p pd=2.84u as=0 ps=0 w=2u l=2u
X98 AVDD AVDD AVDD AVDD pfet_03v3 ad=1.3p pd=5.3u as=0 ps=0 w=2u l=2u
X99 AVDD IREF a_n13990_8177# AVDD pfet_03v3 ad=0.84p pd=2.84u as=0.84p ps=2.84u w=2u l=2u
X100 AVDD IREF a_n13990_8177# AVDD pfet_03v3 ad=0.84p pd=2.84u as=1.3p ps=5.3u w=2u l=2u
X101 AVDD AVDD AVDD AVDD pfet_03v3 ad=1.3p pd=5.3u as=0 ps=0 w=2u l=2u
X102 a_n13990_8177# IREF AVDD AVDD pfet_03v3 ad=1.3p pd=5.3u as=0.84p ps=2.84u w=2u l=2u
X103 a_5396_9163# a_5396_n6451# AVDD AVDD pfet_03v3 ad=0.84p pd=2.84u as=0.84p ps=2.84u w=2u l=2u
X104 a_5396_n6451# a_n11317_n20927# a_5396_8177# AVDD pfet_03v3 ad=0.84p pd=2.84u as=0.84p ps=2.84u w=2u l=2u
X105 a_5396_8177# a_n11317_n20927# a_5396_n6451# AVDD pfet_03v3 ad=0.84p pd=2.84u as=1.3p ps=5.3u w=2u l=2u
X106 AVDD AVDD AVDD AVDD pfet_03v3 ad=0.84p pd=2.84u as=0 ps=0 w=2u l=2u
X107 AVSS AVSS AVSS AVSS nfet_03v3 ad=0.8p pd=2.8u as=0 ps=0 w=2u l=2u
X108 AVDD AVDD AVDD AVDD pfet_03v3 ad=1.3p pd=5.3u as=0 ps=0 w=2u l=2u
X109 AVDD AVDD AVDD AVDD pfet_03v3 ad=0.84p pd=2.84u as=0 ps=0 w=2u l=2u
X110 a_n1533_n16323# a_n11317_n20927# a_n2101_n16323# AVDD pfet_03v3 ad=0.504p pd=2.04u as=0.504p ps=2.04u w=1.2u l=2u
X111 a_n13990_8177# IREF AVDD AVDD pfet_03v3 ad=0.84p pd=2.84u as=1.3p ps=5.3u w=2u l=2u
X112 AVSS AVSS AVSS AVSS nfet_03v3 ad=0.8p pd=2.8u as=0 ps=0 w=2u l=2u
X113 VOUT a_n11317_n20927# a_5396_9163# AVDD pfet_03v3 ad=1.3p pd=5.3u as=0.84p ps=2.84u w=2u l=2u
X114 AVDD AVDD AVDD AVDD pfet_03v3 ad=0.84p pd=2.84u as=0 ps=0 w=2u l=2u
X115 a_5396_9163# a_5396_n6451# AVDD AVDD pfet_03v3 ad=1.3p pd=5.3u as=0.84p ps=2.84u w=2u l=2u
X116 AVDD AVDD AVDD AVDD pfet_03v3 ad=1.3p pd=5.3u as=0 ps=0 w=2u l=2u
X117 AVDD IREF a_n13990_8177# AVDD pfet_03v3 ad=0.84p pd=2.84u as=0.84p ps=2.84u w=2u l=2u
X118 AVDD AVDD AVDD AVDD pfet_03v3 ad=0.84p pd=2.84u as=0 ps=0 w=2u l=2u
X119 AVDD AVDD AVDD AVDD pfet_03v3 ad=0.84p pd=2.84u as=0 ps=0 w=2u l=2u
X120 AVDD AVDD AVDD AVDD pfet_03v3 ad=1.3p pd=5.3u as=0 ps=0 w=2u l=2u
X121 IREF IREF AVDD AVDD pfet_03v3 ad=0.84p pd=2.84u as=0.84p ps=2.84u w=2u l=2u
X122 a_n11737_n14973# IREF AVDD AVDD pfet_03v3 ad=0.84p pd=2.84u as=0.84p ps=2.84u w=2u l=2u
X123 AVDD AVDD AVDD AVDD pfet_03v3 ad=1.3p pd=5.3u as=0 ps=0 w=2u l=2u
X124 a_n13990_n6451# VP a_n13990_8177# AVDD pfet_03v3 ad=1.3p pd=5.3u as=0.84p ps=2.84u w=2u l=2u
X125 AVDD AVDD AVDD AVDD pfet_03v3 ad=1.3p pd=5.3u as=0 ps=0 w=2u l=2u
X126 AVDD AVDD AVDD AVDD pfet_03v3 ad=0.84p pd=2.84u as=0 ps=0 w=2u l=2u
X127 AVDD IREF a_n13990_8177# AVDD pfet_03v3 ad=0.84p pd=2.84u as=0.84p ps=2.84u w=2u l=2u
X128 AVDD IREF a_n11737_n15980# AVDD pfet_03v3 ad=0.84p pd=2.84u as=1.3p ps=5.3u w=2u l=2u
X129 AVDD IREF a_n13990_8177# AVDD pfet_03v3 ad=1.3p pd=5.3u as=0.84p ps=2.84u w=2u l=2u
X130 VOUT a_n11317_n20927# a_5396_9163# AVDD pfet_03v3 ad=1.3p pd=5.3u as=0.84p ps=2.84u w=2u l=2u
X131 a_5396_9163# a_5396_n6451# AVDD AVDD pfet_03v3 ad=1.3p pd=5.3u as=0.84p ps=2.84u w=2u l=2u
X132 AVDD AVDD AVDD AVDD pfet_03v3 ad=0.84p pd=2.84u as=0 ps=0 w=2u l=2u
X133 AVDD IREF a_n13990_8177# AVDD pfet_03v3 ad=0.84p pd=2.84u as=0.84p ps=2.84u w=2u l=2u
X134 AVDD a_5396_n6451# a_5396_8177# AVDD pfet_03v3 ad=0.84p pd=2.84u as=0.84p ps=2.84u w=2u l=2u
X135 AVDD IREF a_n13990_8177# AVDD pfet_03v3 ad=0.84p pd=2.84u as=1.3p ps=5.3u w=2u l=2u
X136 a_n13990_8177# IREF AVDD AVDD pfet_03v3 ad=0.84p pd=2.84u as=0.84p ps=2.84u w=2u l=2u
X137 AVDD IREF a_n13990_8177# AVDD pfet_03v3 ad=0.84p pd=2.84u as=0.84p ps=2.84u w=2u l=2u
X138 a_n13990_n6451# a_n11737_n14973# AVSS AVSS nfet_03v3 ad=1.22p pd=5.22u as=0.8p ps=2.8u w=2u l=2u
X139 a_n2101_n15598# a_n11317_n20927# a_n2631_n16323# AVDD pfet_03v3 ad=0.504p pd=2.04u as=0.78p ps=3.7u w=1.2u l=2u
X140 a_n13990_n6451# a_n11737_n14973# AVSS AVSS nfet_03v3 ad=0.8p pd=2.8u as=1.22p ps=5.22u w=2u l=2u
X141 AVDD AVDD AVDD AVDD pfet_03v3 ad=1.3p pd=5.3u as=0 ps=0 w=2u l=2u
X142 AVDD AVDD AVDD AVDD pfet_03v3 ad=1.3p pd=5.3u as=0 ps=0 w=2u l=2u
X143 AVDD AVDD AVDD AVDD pfet_03v3 ad=0.84p pd=2.84u as=0 ps=0 w=2u l=2u
X144 AVDD AVDD AVDD AVDD pfet_03v3 ad=1.3p pd=5.3u as=0 ps=0 w=2u l=2u
X145 AVDD IREF a_n13990_8177# AVDD pfet_03v3 ad=0.84p pd=2.84u as=1.3p ps=5.3u w=2u l=2u
X146 AVDD AVDD AVDD AVDD pfet_03v3 ad=0.84p pd=2.84u as=0 ps=0 w=2u l=2u
X147 AVDD AVDD AVDD AVDD pfet_03v3 ad=1.3p pd=5.3u as=0 ps=0 w=2u l=2u
X148 AVDD AVDD AVDD AVDD pfet_03v3 ad=0.84p pd=2.84u as=0 ps=0 w=2u l=2u
X149 AVDD a_5396_n6451# a_5396_8177# AVDD pfet_03v3 ad=0.84p pd=2.84u as=1.3p ps=5.3u w=2u l=2u
X150 a_n13990_8177# IREF AVDD AVDD pfet_03v3 ad=0.84p pd=2.84u as=1.3p ps=5.3u w=2u l=2u
X151 a_5396_n6451# a_n11317_n20927# a_5396_8177# AVDD pfet_03v3 ad=0.84p pd=2.84u as=0.84p ps=2.84u w=2u l=2u
X152 AVDD AVDD AVDD AVDD pfet_03v3 ad=0.504p pd=2.04u as=0 ps=0 w=1.2u l=2u
X153 AVDD AVDD AVDD AVDD pfet_03v3 ad=0.84p pd=2.84u as=0 ps=0 w=2u l=2u
X154 a_n13990_n5465# a_n11737_n15980# VOUT AVSS nfet_03v3 ad=1.22p pd=5.22u as=0.8p ps=2.8u w=2u l=2u
X155 a_n13990_n5465# a_n11737_n15980# VOUT AVSS nfet_03v3 ad=0.8p pd=2.8u as=1.22p ps=5.22u w=2u l=2u
X156 AVDD IREF a_n11737_n15980# AVDD pfet_03v3 ad=0.84p pd=2.84u as=0.84p ps=2.84u w=2u l=2u
X157 a_n13990_8177# IREF AVDD AVDD pfet_03v3 ad=0.84p pd=2.84u as=0.84p ps=2.84u w=2u l=2u
X158 a_5396_8177# a_n11317_n20927# a_5396_n6451# AVDD pfet_03v3 ad=0.84p pd=2.84u as=0.84p ps=2.84u w=2u l=2u
X159 VOUT a_n11317_n20927# a_5396_9163# AVDD pfet_03v3 ad=0.84p pd=2.84u as=0.84p ps=2.84u w=2u l=2u
X160 a_n13990_n5465# VN a_n13990_8177# AVDD pfet_03v3 ad=0.84p pd=2.84u as=0.84p ps=2.84u w=2u l=2u
X161 AVDD AVDD AVDD AVDD pfet_03v3 ad=0.84p pd=2.84u as=0 ps=0 w=2u l=2u
X162 IREF IREF AVDD AVDD pfet_03v3 ad=0.84p pd=2.84u as=0.84p ps=2.84u w=2u l=2u
X163 AVDD AVDD AVDD AVDD pfet_03v3 ad=1.3p pd=5.3u as=0 ps=0 w=2u l=2u
X164 a_n13990_8177# IREF AVDD AVDD pfet_03v3 ad=0.84p pd=2.84u as=0.84p ps=2.84u w=2u l=2u
X165 AVDD AVDD AVDD AVDD pfet_03v3 ad=1.3p pd=5.3u as=0 ps=0 w=2u l=2u
X166 AVSS AVSS AVSS AVSS nfet_03v3 ad=0.732p pd=3.62u as=0 ps=0 w=1.2u l=2u
X167 AVDD IREF a_n13990_8177# AVDD pfet_03v3 ad=0.84p pd=2.84u as=0.84p ps=2.84u w=2u l=2u
X168 AVDD a_5396_n6451# a_5396_8177# AVDD pfet_03v3 ad=0.84p pd=2.84u as=1.3p ps=5.3u w=2u l=2u
X169 a_5396_8177# a_5396_n6451# AVDD AVDD pfet_03v3 ad=1.3p pd=5.3u as=0.84p ps=2.84u w=2u l=2u
X170 AVDD AVDD AVDD AVDD pfet_03v3 ad=0.84p pd=2.84u as=0 ps=0 w=2u l=2u
X171 a_n13990_8177# VP a_n13990_n6451# AVDD pfet_03v3 ad=0.84p pd=2.84u as=1.3p ps=5.3u w=2u l=2u
X172 AVDD a_5396_n6451# a_5396_9163# AVDD pfet_03v3 ad=0.84p pd=2.84u as=0.84p ps=2.84u w=2u l=2u
X173 AVDD a_5396_n6451# a_5396_8177# AVDD pfet_03v3 ad=0.84p pd=2.84u as=1.3p ps=5.3u w=2u l=2u
X174 AVDD AVDD AVDD AVDD pfet_03v3 ad=0.84p pd=2.84u as=0 ps=0 w=2u l=2u
X175 AVDD AVDD AVDD AVDD pfet_03v3 ad=0.84p pd=2.84u as=0 ps=0 w=2u l=2u
X176 a_5396_8177# a_n11317_n20927# a_5396_n6451# AVDD pfet_03v3 ad=0.84p pd=2.84u as=0.84p ps=2.84u w=2u l=2u
X177 a_n13990_n5465# VN a_n13990_8177# AVDD pfet_03v3 ad=0.84p pd=2.84u as=0.84p ps=2.84u w=2u l=2u
X178 VOUT a_n11317_n20927# a_5396_9163# AVDD pfet_03v3 ad=0.84p pd=2.84u as=0.84p ps=2.84u w=2u l=2u
X179 AVDD IREF a_n11737_n14973# AVDD pfet_03v3 ad=0.84p pd=2.84u as=0.84p ps=2.84u w=2u l=2u
X180 AVSS AVSS AVSS AVSS nfet_03v3 ad=0.8p pd=2.8u as=0 ps=0 w=2u l=2u
X181 AVSS AVSS AVSS AVSS nfet_03v3 ad=1.22p pd=5.22u as=0 ps=0 w=2u l=2u
X182 AVSS AVSS AVSS AVSS nfet_03v3 ad=0.8p pd=2.8u as=0 ps=0 w=2u l=2u
X183 AVDD AVDD AVDD AVDD pfet_03v3 ad=0.84p pd=2.84u as=0 ps=0 w=2u l=2u
X184 a_5396_9163# a_n11317_n20927# VOUT AVDD pfet_03v3 ad=1.3p pd=5.3u as=0.84p ps=2.84u w=2u l=2u
X185 AVDD IREF a_n11737_n14973# AVDD pfet_03v3 ad=0.84p pd=2.84u as=1.3p ps=5.3u w=2u l=2u
X186 a_5396_9163# a_n11317_n20927# VOUT AVDD pfet_03v3 ad=0.84p pd=2.84u as=0.84p ps=2.84u w=2u l=2u
X187 a_n13990_n6451# VP a_n13990_8177# AVDD pfet_03v3 ad=0.84p pd=2.84u as=0.84p ps=2.84u w=2u l=2u
X188 a_n13990_8177# VP a_n13990_n6451# AVDD pfet_03v3 ad=0.84p pd=2.84u as=0.84p ps=2.84u w=2u l=2u
X189 a_n2101_n16323# a_n11317_n20927# a_n2631_n16323# AVDD pfet_03v3 ad=0.504p pd=2.04u as=0.78p ps=3.7u w=1.2u l=2u
X190 a_5396_n6451# a_n11317_n20927# a_5396_8177# AVDD pfet_03v3 ad=1.3p pd=5.3u as=0.84p ps=2.84u w=2u l=2u
X191 VOUT a_n11317_n20927# a_5396_9163# AVDD pfet_03v3 ad=1.3p pd=5.3u as=0.84p ps=2.84u w=2u l=2u
X192 AVDD a_5396_n6451# a_5396_8177# AVDD pfet_03v3 ad=0.84p pd=2.84u as=0.84p ps=2.84u w=2u l=2u
X193 a_5396_9163# a_5396_n6451# AVDD AVDD pfet_03v3 ad=0.84p pd=2.84u as=0.84p ps=2.84u w=2u l=2u
X194 AVSS a_n11737_n14973# a_n13990_n6451# AVSS nfet_03v3 ad=0.8p pd=2.8u as=0.8p ps=2.8u w=2u l=2u
X195 a_n6139_n21443# a_n11737_n15980# a_n6661_n21443# AVSS nfet_03v3 ad=0.48p pd=2u as=0.732p ps=3.62u w=1.2u l=2u
X196 a_5396_9163# a_5396_n6451# AVDD AVDD pfet_03v3 ad=0.84p pd=2.84u as=0.84p ps=2.84u w=2u l=2u
X197 a_n13990_n5465# a_n11737_n15980# VOUT AVSS nfet_03v3 ad=0.8p pd=2.8u as=0.8p ps=2.8u w=2u l=2u
X198 AVDD AVDD AVDD AVDD pfet_03v3 ad=1.3p pd=5.3u as=0 ps=0 w=2u l=2u
X199 a_5396_8177# a_5396_n6451# AVDD AVDD pfet_03v3 ad=0.84p pd=2.84u as=0.84p ps=2.84u w=2u l=2u
X200 AVDD AVDD AVDD AVDD pfet_03v3 ad=0.84p pd=2.84u as=0 ps=0 w=2u l=2u
X201 a_5396_n6451# a_n11317_n20927# a_5396_8177# AVDD pfet_03v3 ad=1.3p pd=5.3u as=0.84p ps=2.84u w=2u l=2u
X202 AVDD AVDD AVDD AVDD pfet_03v3 ad=0.84p pd=2.84u as=0 ps=0 w=2u l=2u
X203 AVDD IREF a_n13990_8177# AVDD pfet_03v3 ad=0.84p pd=2.84u as=0.84p ps=2.84u w=2u l=2u
X204 AVSS a_n11737_n14973# a_n13990_n6451# AVSS nfet_03v3 ad=1.22p pd=5.22u as=0.8p ps=2.8u w=2u l=2u
X205 a_5396_9163# a_n11317_n20927# VOUT AVDD pfet_03v3 ad=0.84p pd=2.84u as=0.84p ps=2.84u w=2u l=2u
X206 a_n13990_8177# VN a_n13990_n5465# AVDD pfet_03v3 ad=0.84p pd=2.84u as=0.84p ps=2.84u w=2u l=2u
X207 AVDD AVDD AVDD AVDD pfet_03v3 ad=1.3p pd=5.3u as=0 ps=0 w=2u l=2u
X208 VOUT a_n11317_n20927# a_5396_9163# AVDD pfet_03v3 ad=1.3p pd=5.3u as=0.84p ps=2.84u w=2u l=2u
X209 a_n13990_8177# VN a_n13990_n5465# AVDD pfet_03v3 ad=0.84p pd=2.84u as=1.3p ps=5.3u w=2u l=2u
X210 AVDD AVDD AVDD AVDD pfet_03v3 ad=1.3p pd=5.3u as=0 ps=0 w=2u l=2u
X211 a_n13990_8177# IREF AVDD AVDD pfet_03v3 ad=1.3p pd=5.3u as=0.84p ps=2.84u w=2u l=2u
X212 AVSS AVSS AVSS AVSS nfet_03v3 ad=0.8p pd=2.8u as=0 ps=0 w=2u l=2u
X213 VOUT a_n11317_n20927# a_5396_9163# AVDD pfet_03v3 ad=1.3p pd=5.3u as=0.84p ps=2.84u w=2u l=2u
X214 AVDD AVDD AVDD AVDD pfet_03v3 ad=1.3p pd=5.3u as=0 ps=0 w=2u l=2u
X215 AVDD AVDD AVDD AVDD pfet_03v3 ad=1.3p pd=5.3u as=0 ps=0 w=2u l=2u
X216 AVDD AVDD AVDD AVDD pfet_03v3 ad=0.84p pd=2.84u as=0 ps=0 w=2u l=2u
X217 AVDD AVDD AVDD AVDD pfet_03v3 ad=0.78p pd=3.7u as=0 ps=0 w=1.2u l=2u
X218 a_n13990_8177# VN a_n13990_n5465# AVDD pfet_03v3 ad=0.84p pd=2.84u as=1.3p ps=5.3u w=2u l=2u
X219 AVDD a_5396_n6451# a_5396_8177# AVDD pfet_03v3 ad=0.84p pd=2.84u as=0.84p ps=2.84u w=2u l=2u
X220 a_5396_9163# a_n11317_n20927# VOUT AVDD pfet_03v3 ad=0.84p pd=2.84u as=1.3p ps=5.3u w=2u l=2u
X221 AVDD AVDD AVDD AVDD pfet_03v3 ad=1.3p pd=5.3u as=0 ps=0 w=2u l=2u
X222 AVDD AVDD AVDD AVDD pfet_03v3 ad=0.84p pd=2.84u as=0 ps=0 w=2u l=2u
X223 a_n13990_n5465# VN a_n13990_8177# AVDD pfet_03v3 ad=0.84p pd=2.84u as=0.84p ps=2.84u w=2u l=2u
X224 a_n13990_8177# VN a_n13990_n5465# AVDD pfet_03v3 ad=0.84p pd=2.84u as=0.84p ps=2.84u w=2u l=2u
X225 AVDD AVDD AVDD AVDD pfet_03v3 ad=1.3p pd=5.3u as=0 ps=0 w=2u l=2u
X226 VOUT a_n11317_n20927# a_5396_9163# AVDD pfet_03v3 ad=1.3p pd=5.3u as=0.84p ps=2.84u w=2u l=2u
X227 a_n1533_n17634# a_n11317_n20927# a_n2101_n17634# AVDD pfet_03v3 ad=0.504p pd=2.04u as=0.504p ps=2.04u w=1.2u l=2u
X228 a_5396_n6451# a_n11317_n20927# a_5396_8177# AVDD pfet_03v3 ad=0.84p pd=2.84u as=0.84p ps=2.84u w=2u l=2u
X229 AVDD AVDD AVDD AVDD pfet_03v3 ad=1.3p pd=5.3u as=0 ps=0 w=2u l=2u
X230 AVSS AVSS AVSS AVSS nfet_03v3 ad=0.732p pd=3.62u as=0 ps=0 w=1.2u l=2u
X231 AVDD AVDD AVDD AVDD pfet_03v3 ad=1.3p pd=5.3u as=0 ps=0 w=2u l=2u
X232 AVDD AVDD AVDD AVDD pfet_03v3 ad=0.84p pd=2.84u as=0 ps=0 w=2u l=2u
X233 AVDD AVDD AVDD AVDD pfet_03v3 ad=1.3p pd=5.3u as=0 ps=0 w=2u l=2u
X234 AVSS AVSS AVSS AVSS nfet_03v3 ad=0.732p pd=3.62u as=0 ps=0 w=1.2u l=2u
X235 AVSS a_n11737_n14973# a_n13990_n6451# AVSS nfet_03v3 ad=0.8p pd=2.8u as=0.8p ps=2.8u w=2u l=2u
X236 AVDD AVDD AVDD AVDD pfet_03v3 ad=0.84p pd=2.84u as=0 ps=0 w=2u l=2u
X237 AVDD AVDD AVDD AVDD pfet_03v3 ad=0.78p pd=3.7u as=0 ps=0 w=1.2u l=2u
X238 a_5396_n6451# a_n11737_n15980# a_n13990_n6451# AVSS nfet_03v3 ad=1.22p pd=5.22u as=0.8p ps=2.8u w=2u l=2u
X239 a_n13990_8177# VN a_n13990_n5465# AVDD pfet_03v3 ad=0.84p pd=2.84u as=1.3p ps=5.3u w=2u l=2u
X240 a_5396_n6451# a_n11737_n15980# a_n13990_n6451# AVSS nfet_03v3 ad=0.8p pd=2.8u as=1.22p ps=5.22u w=2u l=2u
X241 AVDD AVDD AVDD AVDD pfet_03v3 ad=1.3p pd=5.3u as=0 ps=0 w=2u l=2u
X242 AVDD IREF a_n13990_8177# AVDD pfet_03v3 ad=0.84p pd=2.84u as=0.84p ps=2.84u w=2u l=2u
X243 AVDD AVDD AVDD AVDD pfet_03v3 ad=1.3p pd=5.3u as=0 ps=0 w=2u l=2u
X244 AVDD AVDD AVDD AVDD pfet_03v3 ad=0.84p pd=2.84u as=0 ps=0 w=2u l=2u
X245 AVDD a_5396_n6451# a_5396_9163# AVDD pfet_03v3 ad=0.84p pd=2.84u as=0.84p ps=2.84u w=2u l=2u
X246 AVDD IREF a_n13990_8177# AVDD pfet_03v3 ad=0.84p pd=2.84u as=0.84p ps=2.84u w=2u l=2u
X247 AVDD AVDD AVDD AVDD pfet_03v3 ad=0.84p pd=2.84u as=0 ps=0 w=2u l=2u
X248 AVDD AVDD AVDD AVDD pfet_03v3 ad=0.84p pd=2.84u as=0 ps=0 w=2u l=2u
X249 AVDD AVDD AVDD AVDD pfet_03v3 ad=1.3p pd=5.3u as=0 ps=0 w=2u l=2u
X250 AVDD AVDD AVDD AVDD pfet_03v3 ad=0.84p pd=2.84u as=0 ps=0 w=2u l=2u
X251 AVSS AVSS AVSS AVSS nfet_03v3 ad=1.22p pd=5.22u as=0 ps=0 w=2u l=2u
X252 AVDD AVDD AVDD AVDD pfet_03v3 ad=1.3p pd=5.3u as=0 ps=0 w=2u l=2u
X253 AVDD AVDD AVDD AVDD pfet_03v3 ad=1.3p pd=5.3u as=0 ps=0 w=2u l=2u
X254 AVDD IREF a_n13990_8177# AVDD pfet_03v3 ad=0.84p pd=2.84u as=0.84p ps=2.84u w=2u l=2u
X255 AVDD AVDD AVDD AVDD pfet_03v3 ad=1.3p pd=5.3u as=0 ps=0 w=2u l=2u
X256 AVDD IREF IREF AVDD pfet_03v3 ad=0.84p pd=2.84u as=0.84p ps=2.84u w=2u l=2u
X257 AVDD IREF IREF AVDD pfet_03v3 ad=0.84p pd=2.84u as=1.3p ps=5.3u w=2u l=2u
X258 AVSS AVSS AVSS AVSS nfet_03v3 ad=1.22p pd=5.22u as=0 ps=0 w=2u l=2u
X259 AVDD AVDD AVDD AVDD pfet_03v3 ad=0.84p pd=2.84u as=0 ps=0 w=2u l=2u
X260 a_n13990_8177# IREF AVDD AVDD pfet_03v3 ad=0.84p pd=2.84u as=1.3p ps=5.3u w=2u l=2u
X261 a_n13990_n6451# VP a_n13990_8177# AVDD pfet_03v3 ad=0.84p pd=2.84u as=0.84p ps=2.84u w=2u l=2u
X262 AVDD AVDD AVDD AVDD pfet_03v3 ad=1.3p pd=5.3u as=0 ps=0 w=2u l=2u
X263 AVDD AVDD AVDD AVDD pfet_03v3 ad=1.3p pd=5.3u as=0 ps=0 w=2u l=2u
X264 AVDD AVDD AVDD AVDD pfet_03v3 ad=0.84p pd=2.84u as=0 ps=0 w=2u l=2u
X265 AVDD AVDD AVDD AVDD pfet_03v3 ad=1.3p pd=5.3u as=0 ps=0 w=2u l=2u
X266 AVDD AVDD AVDD AVDD pfet_03v3 ad=1.3p pd=5.3u as=0 ps=0 w=2u l=2u
X267 AVDD AVDD AVDD AVDD pfet_03v3 ad=0.84p pd=2.84u as=0 ps=0 w=2u l=2u
X268 AVDD AVDD AVDD AVDD pfet_03v3 ad=1.3p pd=5.3u as=0 ps=0 w=2u l=2u
X269 a_n13990_8177# VP a_n13990_n6451# AVDD pfet_03v3 ad=0.84p pd=2.84u as=1.3p ps=5.3u w=2u l=2u
X270 a_5396_8177# a_5396_n6451# AVDD AVDD pfet_03v3 ad=1.3p pd=5.3u as=0.84p ps=2.84u w=2u l=2u
X271 AVDD AVDD AVDD AVDD pfet_03v3 ad=1.3p pd=5.3u as=0 ps=0 w=2u l=2u
X272 a_n13990_8177# VP a_n13990_n6451# AVDD pfet_03v3 ad=0.84p pd=2.84u as=0.84p ps=2.84u w=2u l=2u
X273 AVDD AVDD AVDD AVDD pfet_03v3 ad=1.3p pd=5.3u as=0 ps=0 w=2u l=2u
X274 AVDD IREF a_n13990_8177# AVDD pfet_03v3 ad=0.84p pd=2.84u as=0.84p ps=2.84u w=2u l=2u
X275 a_n11737_n14973# IREF AVDD AVDD pfet_03v3 ad=0.84p pd=2.84u as=1.3p ps=5.3u w=2u l=2u
X276 AVDD AVDD AVDD AVDD pfet_03v3 ad=1.3p pd=5.3u as=0 ps=0 w=2u l=2u
X277 AVDD AVDD AVDD AVDD pfet_03v3 ad=0.84p pd=2.84u as=0 ps=0 w=2u l=2u
X278 AVDD AVDD AVDD AVDD pfet_03v3 ad=0.84p pd=2.84u as=0 ps=0 w=2u l=2u
X279 VOUT a_n11317_n20927# a_5396_9163# AVDD pfet_03v3 ad=0.84p pd=2.84u as=0.84p ps=2.84u w=2u l=2u
X280 AVDD IREF a_n13990_8177# AVDD pfet_03v3 ad=1.3p pd=5.3u as=0.84p ps=2.84u w=2u l=2u
X281 AVSS AVSS AVSS AVSS nfet_03v3 ad=1.3725p pd=5.72u as=0 ps=0 w=2.25u l=2u
X282 AVDD AVDD AVDD AVDD pfet_03v3 ad=1.3p pd=5.3u as=0 ps=0 w=2u l=2u
X283 AVSS AVSS AVSS AVSS nfet_03v3 ad=1.3725p pd=5.72u as=0 ps=0 w=2.25u l=2u
X284 AVDD IREF a_n13990_8177# AVDD pfet_03v3 ad=0.84p pd=2.84u as=1.3p ps=5.3u w=2u l=2u
X285 VOUT a_n11317_n20927# a_5396_9163# AVDD pfet_03v3 ad=0.84p pd=2.84u as=0.84p ps=2.84u w=2u l=2u
X286 AVDD AVDD AVDD AVDD pfet_03v3 ad=0.84p pd=2.84u as=0 ps=0 w=2u l=2u
X287 a_n13990_8177# IREF AVDD AVDD pfet_03v3 ad=0.84p pd=2.84u as=0.84p ps=2.84u w=2u l=2u
X288 AVDD AVDD AVDD AVDD pfet_03v3 ad=1.3p pd=5.3u as=0 ps=0 w=2u l=2u
X289 AVDD AVDD AVDD AVDD pfet_03v3 ad=0.84p pd=2.84u as=0 ps=0 w=2u l=2u
X290 a_5396_n6451# a_n11737_n15980# a_n13990_n6451# AVSS nfet_03v3 ad=1.22p pd=5.22u as=0.8p ps=2.8u w=2u l=2u
X291 AVDD AVDD AVDD AVDD pfet_03v3 ad=0.84p pd=2.84u as=0 ps=0 w=2u l=2u
X292 a_5396_n6451# a_n11737_n15980# a_n13990_n6451# AVSS nfet_03v3 ad=0.8p pd=2.8u as=1.22p ps=5.22u w=2u l=2u
X293 AVDD AVDD AVDD AVDD pfet_03v3 ad=0.84p pd=2.84u as=0 ps=0 w=2u l=2u
X294 AVDD AVDD AVDD AVDD pfet_03v3 ad=0.84p pd=2.84u as=0 ps=0 w=2u l=2u
X295 AVDD AVDD AVDD AVDD pfet_03v3 ad=1.3p pd=5.3u as=0 ps=0 w=2u l=2u
X296 AVDD AVDD AVDD AVDD pfet_03v3 ad=0.84p pd=2.84u as=0 ps=0 w=2u l=2u
X297 a_n13990_8177# IREF AVDD AVDD pfet_03v3 ad=0.84p pd=2.84u as=0.84p ps=2.84u w=2u l=2u
X298 a_n13990_n6451# a_n11737_n15980# a_5396_n6451# AVSS nfet_03v3 ad=0.8p pd=2.8u as=0.8p ps=2.8u w=2u l=2u
X299 AVDD AVDD AVDD AVDD pfet_03v3 ad=1.3p pd=5.3u as=0 ps=0 w=2u l=2u
X300 AVDD a_5396_n6451# a_5396_9163# AVDD pfet_03v3 ad=0.84p pd=2.84u as=1.3p ps=5.3u w=2u l=2u
X301 AVDD AVDD AVDD AVDD pfet_03v3 ad=0.84p pd=2.84u as=0 ps=0 w=2u l=2u
X302 a_5396_8177# a_n11317_n20927# a_5396_n6451# AVDD pfet_03v3 ad=0.84p pd=2.84u as=0.84p ps=2.84u w=2u l=2u
X303 AVSS AVSS AVSS AVSS nfet_03v3 ad=1.22p pd=5.22u as=0 ps=0 w=2u l=2u
X304 VOUT a_n11317_n20927# a_5396_9163# AVDD pfet_03v3 ad=0.84p pd=2.84u as=0.84p ps=2.84u w=2u l=2u
X305 a_5396_9163# a_5396_n6451# AVDD AVDD pfet_03v3 ad=0.84p pd=2.84u as=1.3p ps=5.3u w=2u l=2u
X306 a_n13990_8177# VN a_n13990_n5465# AVDD pfet_03v3 ad=0.84p pd=2.84u as=1.3p ps=5.3u w=2u l=2u
X307 AVSS AVSS AVSS AVSS nfet_03v3 ad=1.3725p pd=5.72u as=0 ps=0 w=2.25u l=2u
X308 AVDD AVDD AVDD AVDD pfet_03v3 ad=0.84p pd=2.84u as=0 ps=0 w=2u l=2u
X309 a_n13990_8177# VP a_n13990_n6451# AVDD pfet_03v3 ad=0.84p pd=2.84u as=0.84p ps=2.84u w=2u l=2u
X310 a_n13990_n6451# VP a_n13990_8177# AVDD pfet_03v3 ad=0.84p pd=2.84u as=0.84p ps=2.84u w=2u l=2u
X311 a_5396_9163# a_n11317_n20927# VOUT AVDD pfet_03v3 ad=0.84p pd=2.84u as=0.84p ps=2.84u w=2u l=2u
X312 a_n13990_n6451# VP a_n13990_8177# AVDD pfet_03v3 ad=0.84p pd=2.84u as=0.84p ps=2.84u w=2u l=2u
X313 AVDD AVDD AVDD AVDD pfet_03v3 ad=1.3p pd=5.3u as=0 ps=0 w=2u l=2u
X314 AVSS AVSS AVSS AVSS nfet_03v3 ad=1.22p pd=5.22u as=0 ps=0 w=2u l=2u
X315 AVDD AVDD AVDD AVDD pfet_03v3 ad=0.84p pd=2.84u as=0 ps=0 w=2u l=2u
X316 a_n2101_n17634# a_n11317_n20927# a_n2631_n17634# AVDD pfet_03v3 ad=0.504p pd=2.04u as=0.78p ps=3.7u w=1.2u l=2u
X317 AVDD AVDD AVDD AVDD pfet_03v3 ad=0.84p pd=2.84u as=0 ps=0 w=2u l=2u
X318 a_n13990_8177# VN a_n13990_n5465# AVDD pfet_03v3 ad=0.84p pd=2.84u as=1.3p ps=5.3u w=2u l=2u
X319 AVDD a_5396_n6451# a_5396_8177# AVDD pfet_03v3 ad=0.84p pd=2.84u as=0.84p ps=2.84u w=2u l=2u
X320 AVDD AVDD AVDD AVDD pfet_03v3 ad=1.3p pd=5.3u as=0 ps=0 w=2u l=2u
X321 a_n13990_8177# VN a_n13990_n5465# AVDD pfet_03v3 ad=0.84p pd=2.84u as=0.84p ps=2.84u w=2u l=2u
X322 AVDD IREF a_n13990_8177# AVDD pfet_03v3 ad=0.84p pd=2.84u as=1.3p ps=5.3u w=2u l=2u
X323 IREF IREF AVDD AVDD pfet_03v3 ad=0.84p pd=2.84u as=0.84p ps=2.84u w=2u l=2u
X324 AVDD AVDD AVDD AVDD pfet_03v3 ad=0.84p pd=2.84u as=0 ps=0 w=2u l=2u
X325 AVDD AVDD AVDD AVDD pfet_03v3 ad=1.3p pd=5.3u as=0 ps=0 w=2u l=2u
X326 AVDD AVDD AVDD AVDD pfet_03v3 ad=0.84p pd=2.84u as=0 ps=0 w=2u l=2u
X327 AVDD a_5396_n6451# a_5396_9163# AVDD pfet_03v3 ad=0.84p pd=2.84u as=1.3p ps=5.3u w=2u l=2u
X328 AVDD AVDD AVDD AVDD pfet_03v3 ad=0.84p pd=2.84u as=0 ps=0 w=2u l=2u
X329 AVDD AVDD AVDD AVDD pfet_03v3 ad=1.3p pd=5.3u as=0 ps=0 w=2u l=2u
X330 AVSS AVSS AVSS AVSS nfet_03v3 ad=1.22p pd=5.22u as=0 ps=0 w=2u l=2u
X331 AVDD AVDD AVDD AVDD pfet_03v3 ad=1.3p pd=5.3u as=0 ps=0 w=2u l=2u
X332 a_5396_9163# a_5396_n6451# AVDD AVDD pfet_03v3 ad=1.3p pd=5.3u as=0.84p ps=2.84u w=2u l=2u
X333 AVDD AVDD AVDD AVDD pfet_03v3 ad=0.84p pd=2.84u as=0 ps=0 w=2u l=2u
X334 a_n13990_n6451# VP a_n13990_8177# AVDD pfet_03v3 ad=0.84p pd=2.84u as=1.3p ps=5.3u w=2u l=2u
X335 AVDD a_5396_n6451# a_5396_8177# AVDD pfet_03v3 ad=0.84p pd=2.84u as=0.84p ps=2.84u w=2u l=2u
X336 AVDD AVDD AVDD AVDD pfet_03v3 ad=1.3p pd=5.3u as=0 ps=0 w=2u l=2u
X337 AVDD AVDD AVDD AVDD pfet_03v3 ad=0.84p pd=2.84u as=0 ps=0 w=2u l=2u
X338 AVDD AVDD AVDD AVDD pfet_03v3 ad=0.84p pd=2.84u as=0 ps=0 w=2u l=2u
X339 IREF IREF AVDD AVDD pfet_03v3 ad=0.84p pd=2.84u as=0.84p ps=2.84u w=2u l=2u
X340 a_n13990_8177# VN a_n13990_n5465# AVDD pfet_03v3 ad=0.84p pd=2.84u as=0.84p ps=2.84u w=2u l=2u
X341 AVDD a_5396_n6451# a_5396_8177# AVDD pfet_03v3 ad=0.84p pd=2.84u as=0.84p ps=2.84u w=2u l=2u
X342 AVDD AVDD AVDD AVDD pfet_03v3 ad=0.84p pd=2.84u as=0 ps=0 w=2u l=2u
X343 a_n13990_n5465# VN a_n13990_8177# AVDD pfet_03v3 ad=0.84p pd=2.84u as=0.84p ps=2.84u w=2u l=2u