* Extracted by KLayout with GF180MCU LVS runset on : 14/04/2024 15:38

.SUBCKT SAR_Asynchronous_top D_C_11 Valid Bit_0 D_C_10 Bit_1 D_C_9 Bit_2 D_C_8
+ Bit_3 D_C_7 Bit_4 D_C_6 VSSD Set D CK11 CK9 CK8 CK7 CK6 CK5 CK4 CK3 CK2 CK1
+ clks VDDD Reset D_C_1 D_C_2 D_C_3 D_C_4 D_C_5 VCM Bit_10 Bit_9 Bit_8 Bit_7
+ Bit_6 Bit_5
M$1 \$151 Valid VDDD VDDD pfet_03v3 L=0.28U W=3.9U AS=2.535P AD=2.535P PS=9.1U
+ PD=9.1U
M$2 \$152 \$151 VDDD VDDD pfet_03v3 L=0.28U W=3.9U AS=2.535P AD=2.535P PS=9.1U
+ PD=9.1U
M$3 \$153 CK11 VDDD VDDD pfet_03v3 L=0.28U W=3.9U AS=2.535P AD=2.535P PS=9.1U
+ PD=9.1U
M$4 \$154 Valid VDDD VDDD pfet_03v3 L=0.28U W=3.9U AS=2.535P AD=2.535P PS=9.1U
+ PD=9.1U
M$5 \$155 \$154 VDDD VDDD pfet_03v3 L=0.28U W=3.9U AS=2.535P AD=2.535P PS=9.1U
+ PD=9.1U
M$6 \$156 \$96 VDDD VDDD pfet_03v3 L=0.28U W=3.9U AS=2.535P AD=2.535P PS=9.1U
+ PD=9.1U
M$7 \$157 Valid VDDD VDDD pfet_03v3 L=0.28U W=3.9U AS=2.535P AD=2.535P PS=9.1U
+ PD=9.1U
M$8 \$158 \$157 VDDD VDDD pfet_03v3 L=0.28U W=3.9U AS=2.535P AD=2.535P PS=9.1U
+ PD=9.1U
M$9 \$159 CK9 VDDD VDDD pfet_03v3 L=0.28U W=3.9U AS=2.535P AD=2.535P PS=9.1U
+ PD=9.1U
M$10 \$160 Valid VDDD VDDD pfet_03v3 L=0.28U W=3.9U AS=2.535P AD=2.535P PS=9.1U
+ PD=9.1U
M$11 \$161 \$160 VDDD VDDD pfet_03v3 L=0.28U W=3.9U AS=2.535P AD=2.535P PS=9.1U
+ PD=9.1U
M$12 \$162 CK8 VDDD VDDD pfet_03v3 L=0.28U W=3.9U AS=2.535P AD=2.535P PS=9.1U
+ PD=9.1U
M$13 \$163 Valid VDDD VDDD pfet_03v3 L=0.28U W=3.9U AS=2.535P AD=2.535P PS=9.1U
+ PD=9.1U
M$14 \$164 \$163 VDDD VDDD pfet_03v3 L=0.28U W=3.9U AS=2.535P AD=2.535P PS=9.1U
+ PD=9.1U
M$15 \$165 CK7 VDDD VDDD pfet_03v3 L=0.28U W=3.9U AS=2.535P AD=2.535P PS=9.1U
+ PD=9.1U
M$16 \$166 Valid VDDD VDDD pfet_03v3 L=0.28U W=3.9U AS=2.535P AD=2.535P PS=9.1U
+ PD=9.1U
M$17 \$167 \$166 VDDD VDDD pfet_03v3 L=0.28U W=3.9U AS=2.535P AD=2.535P PS=9.1U
+ PD=9.1U
M$18 \$168 CK6 VDDD VDDD pfet_03v3 L=0.28U W=3.9U AS=2.535P AD=2.535P PS=9.1U
+ PD=9.1U
M$19 \$169 Valid VDDD VDDD pfet_03v3 L=0.28U W=3.9U AS=2.535P AD=2.535P PS=9.1U
+ PD=9.1U
M$20 \$170 \$169 VDDD VDDD pfet_03v3 L=0.28U W=3.9U AS=2.535P AD=2.535P PS=9.1U
+ PD=9.1U
M$21 \$171 CK5 VDDD VDDD pfet_03v3 L=0.28U W=3.9U AS=2.535P AD=2.535P PS=9.1U
+ PD=9.1U
M$22 \$172 Valid VDDD VDDD pfet_03v3 L=0.28U W=3.9U AS=2.535P AD=2.535P PS=9.1U
+ PD=9.1U
M$23 \$173 \$172 VDDD VDDD pfet_03v3 L=0.28U W=3.9U AS=2.535P AD=2.535P PS=9.1U
+ PD=9.1U
M$24 \$174 CK4 VDDD VDDD pfet_03v3 L=0.28U W=3.9U AS=2.535P AD=2.535P PS=9.1U
+ PD=9.1U
M$25 \$175 Valid VDDD VDDD pfet_03v3 L=0.28U W=3.9U AS=2.535P AD=2.535P PS=9.1U
+ PD=9.1U
M$26 \$176 \$175 VDDD VDDD pfet_03v3 L=0.28U W=3.9U AS=2.535P AD=2.535P PS=9.1U
+ PD=9.1U
M$27 \$177 CK3 VDDD VDDD pfet_03v3 L=0.28U W=3.9U AS=2.535P AD=2.535P PS=9.1U
+ PD=9.1U
M$28 \$178 Valid VDDD VDDD pfet_03v3 L=0.28U W=3.9U AS=2.535P AD=2.535P PS=9.1U
+ PD=9.1U
M$29 \$179 \$178 VDDD VDDD pfet_03v3 L=0.28U W=3.9U AS=2.535P AD=2.535P PS=9.1U
+ PD=9.1U
M$30 \$180 CK2 VDDD VDDD pfet_03v3 L=0.28U W=3.9U AS=2.535P AD=2.535P PS=9.1U
+ PD=9.1U
M$31 \$181 Valid VDDD VDDD pfet_03v3 L=0.28U W=3.9U AS=2.535P AD=2.535P PS=9.1U
+ PD=9.1U
M$32 \$182 \$181 VDDD VDDD pfet_03v3 L=0.28U W=3.9U AS=2.535P AD=2.535P PS=9.1U
+ PD=9.1U
M$33 \$183 CK1 VDDD VDDD pfet_03v3 L=0.28U W=3.9U AS=2.535P AD=2.535P PS=9.1U
+ PD=9.1U
M$34 \$85 \$152 D VDDD pfet_03v3 L=0.28U W=3.9U AS=2.535P AD=2.535P PS=9.1U
+ PD=9.1U
M$35 \$971 Set VDDD VDDD pfet_03v3 L=0.28U W=3.9U AS=2.535P AD=2.535P PS=9.1U
+ PD=9.1U
M$36 \$86 \$85 \$971 VDDD pfet_03v3 L=0.28U W=3.9U AS=2.535P AD=2.535P PS=9.1U
+ PD=9.1U
M$37 \$972 \$86 VDDD VDDD pfet_03v3 L=0.28U W=3.9U AS=2.535P AD=2.535P PS=9.1U
+ PD=9.1U
M$38 \$87 clks \$972 VDDD pfet_03v3 L=0.28U W=3.9U AS=2.535P AD=2.535P PS=9.1U
+ PD=9.1U
M$39 \$85 \$151 \$87 VDDD pfet_03v3 L=0.28U W=3.9U AS=2.535P AD=2.535P PS=9.1U
+ PD=9.1U
M$40 \$89 \$151 \$86 VDDD pfet_03v3 L=0.28U W=3.9U AS=2.535P AD=2.535P PS=9.1U
+ PD=9.1U
M$41 \$973 clks VDDD VDDD pfet_03v3 L=0.28U W=3.9U AS=2.535P AD=2.535P PS=9.1U
+ PD=9.1U
M$42 CK11 \$89 \$973 VDDD pfet_03v3 L=0.28U W=3.9U AS=2.535P AD=2.535P PS=9.1U
+ PD=9.1U
M$43 \$974 CK11 VDDD VDDD pfet_03v3 L=0.28U W=3.9U AS=2.535P AD=2.535P PS=9.1U
+ PD=9.1U
M$44 \$88 Set \$974 VDDD pfet_03v3 L=0.28U W=3.9U AS=2.535P AD=2.535P PS=9.1U
+ PD=9.1U
M$45 \$89 \$152 \$88 VDDD pfet_03v3 L=0.28U W=3.9U AS=2.535P AD=2.535P PS=9.1U
+ PD=9.1U
M$46 \$91 \$155 CK11 VDDD pfet_03v3 L=0.28U W=3.9U AS=2.535P AD=2.535P PS=9.1U
+ PD=9.1U
M$47 \$975 Set VDDD VDDD pfet_03v3 L=0.28U W=3.9U AS=2.535P AD=2.535P PS=9.1U
+ PD=9.1U
M$48 \$92 \$91 \$975 VDDD pfet_03v3 L=0.28U W=3.9U AS=2.535P AD=2.535P PS=9.1U
+ PD=9.1U
M$49 \$976 \$92 VDDD VDDD pfet_03v3 L=0.28U W=3.9U AS=2.535P AD=2.535P PS=9.1U
+ PD=9.1U
M$50 \$93 clks \$976 VDDD pfet_03v3 L=0.28U W=3.9U AS=2.535P AD=2.535P PS=9.1U
+ PD=9.1U
M$51 \$91 \$154 \$93 VDDD pfet_03v3 L=0.28U W=3.9U AS=2.535P AD=2.535P PS=9.1U
+ PD=9.1U
M$52 \$95 \$154 \$92 VDDD pfet_03v3 L=0.28U W=3.9U AS=2.535P AD=2.535P PS=9.1U
+ PD=9.1U
M$53 \$977 clks VDDD VDDD pfet_03v3 L=0.28U W=3.9U AS=2.535P AD=2.535P PS=9.1U
+ PD=9.1U
M$54 \$96 \$95 \$977 VDDD pfet_03v3 L=0.28U W=3.9U AS=2.535P AD=2.535P PS=9.1U
+ PD=9.1U
M$55 \$978 \$96 VDDD VDDD pfet_03v3 L=0.28U W=3.9U AS=2.535P AD=2.535P PS=9.1U
+ PD=9.1U
M$56 \$94 Set \$978 VDDD pfet_03v3 L=0.28U W=3.9U AS=2.535P AD=2.535P PS=9.1U
+ PD=9.1U
M$57 \$95 \$155 \$94 VDDD pfet_03v3 L=0.28U W=3.9U AS=2.535P AD=2.535P PS=9.1U
+ PD=9.1U
M$58 \$97 \$158 \$96 VDDD pfet_03v3 L=0.28U W=3.9U AS=2.535P AD=2.535P PS=9.1U
+ PD=9.1U
M$59 \$979 Set VDDD VDDD pfet_03v3 L=0.28U W=3.9U AS=2.535P AD=2.535P PS=9.1U
+ PD=9.1U
M$60 \$98 \$97 \$979 VDDD pfet_03v3 L=0.28U W=3.9U AS=2.535P AD=2.535P PS=9.1U
+ PD=9.1U
M$61 \$980 \$98 VDDD VDDD pfet_03v3 L=0.28U W=3.9U AS=2.535P AD=2.535P PS=9.1U
+ PD=9.1U
M$62 \$99 clks \$980 VDDD pfet_03v3 L=0.28U W=3.9U AS=2.535P AD=2.535P PS=9.1U
+ PD=9.1U
M$63 \$97 \$157 \$99 VDDD pfet_03v3 L=0.28U W=3.9U AS=2.535P AD=2.535P PS=9.1U
+ PD=9.1U
M$64 \$101 \$157 \$98 VDDD pfet_03v3 L=0.28U W=3.9U AS=2.535P AD=2.535P PS=9.1U
+ PD=9.1U
M$65 \$981 clks VDDD VDDD pfet_03v3 L=0.28U W=3.9U AS=2.535P AD=2.535P PS=9.1U
+ PD=9.1U
M$66 CK9 \$101 \$981 VDDD pfet_03v3 L=0.28U W=3.9U AS=2.535P AD=2.535P PS=9.1U
+ PD=9.1U
M$67 \$982 CK9 VDDD VDDD pfet_03v3 L=0.28U W=3.9U AS=2.535P AD=2.535P PS=9.1U
+ PD=9.1U
M$68 \$100 Set \$982 VDDD pfet_03v3 L=0.28U W=3.9U AS=2.535P AD=2.535P PS=9.1U
+ PD=9.1U
M$69 \$101 \$158 \$100 VDDD pfet_03v3 L=0.28U W=3.9U AS=2.535P AD=2.535P
+ PS=9.1U PD=9.1U
M$70 \$103 \$161 CK9 VDDD pfet_03v3 L=0.28U W=3.9U AS=2.535P AD=2.535P PS=9.1U
+ PD=9.1U
M$71 \$983 Set VDDD VDDD pfet_03v3 L=0.28U W=3.9U AS=2.535P AD=2.535P PS=9.1U
+ PD=9.1U
M$72 \$104 \$103 \$983 VDDD pfet_03v3 L=0.28U W=3.9U AS=2.535P AD=2.535P
+ PS=9.1U PD=9.1U
M$73 \$984 \$104 VDDD VDDD pfet_03v3 L=0.28U W=3.9U AS=2.535P AD=2.535P PS=9.1U
+ PD=9.1U
M$74 \$105 clks \$984 VDDD pfet_03v3 L=0.28U W=3.9U AS=2.535P AD=2.535P PS=9.1U
+ PD=9.1U
M$75 \$103 \$160 \$105 VDDD pfet_03v3 L=0.28U W=3.9U AS=2.535P AD=2.535P
+ PS=9.1U PD=9.1U
M$76 \$107 \$160 \$104 VDDD pfet_03v3 L=0.28U W=3.9U AS=2.535P AD=2.535P
+ PS=9.1U PD=9.1U
M$77 \$985 clks VDDD VDDD pfet_03v3 L=0.28U W=3.9U AS=2.535P AD=2.535P PS=9.1U
+ PD=9.1U
M$78 CK8 \$107 \$985 VDDD pfet_03v3 L=0.28U W=3.9U AS=2.535P AD=2.535P PS=9.1U
+ PD=9.1U
M$79 \$986 CK8 VDDD VDDD pfet_03v3 L=0.28U W=3.9U AS=2.535P AD=2.535P PS=9.1U
+ PD=9.1U
M$80 \$106 Set \$986 VDDD pfet_03v3 L=0.28U W=3.9U AS=2.535P AD=2.535P PS=9.1U
+ PD=9.1U
M$81 \$107 \$161 \$106 VDDD pfet_03v3 L=0.28U W=3.9U AS=2.535P AD=2.535P
+ PS=9.1U PD=9.1U
M$82 \$109 \$164 CK8 VDDD pfet_03v3 L=0.28U W=3.9U AS=2.535P AD=2.535P PS=9.1U
+ PD=9.1U
M$83 \$987 Set VDDD VDDD pfet_03v3 L=0.28U W=3.9U AS=2.535P AD=2.535P PS=9.1U
+ PD=9.1U
M$84 \$110 \$109 \$987 VDDD pfet_03v3 L=0.28U W=3.9U AS=2.535P AD=2.535P
+ PS=9.1U PD=9.1U
M$85 \$988 \$110 VDDD VDDD pfet_03v3 L=0.28U W=3.9U AS=2.535P AD=2.535P PS=9.1U
+ PD=9.1U
M$86 \$111 clks \$988 VDDD pfet_03v3 L=0.28U W=3.9U AS=2.535P AD=2.535P PS=9.1U
+ PD=9.1U
M$87 \$109 \$163 \$111 VDDD pfet_03v3 L=0.28U W=3.9U AS=2.535P AD=2.535P
+ PS=9.1U PD=9.1U
M$88 \$113 \$163 \$110 VDDD pfet_03v3 L=0.28U W=3.9U AS=2.535P AD=2.535P
+ PS=9.1U PD=9.1U
M$89 \$989 clks VDDD VDDD pfet_03v3 L=0.28U W=3.9U AS=2.535P AD=2.535P PS=9.1U
+ PD=9.1U
M$90 CK7 \$113 \$989 VDDD pfet_03v3 L=0.28U W=3.9U AS=2.535P AD=2.535P PS=9.1U
+ PD=9.1U
M$91 \$990 CK7 VDDD VDDD pfet_03v3 L=0.28U W=3.9U AS=2.535P AD=2.535P PS=9.1U
+ PD=9.1U
M$92 \$112 Set \$990 VDDD pfet_03v3 L=0.28U W=3.9U AS=2.535P AD=2.535P PS=9.1U
+ PD=9.1U
M$93 \$113 \$164 \$112 VDDD pfet_03v3 L=0.28U W=3.9U AS=2.535P AD=2.535P
+ PS=9.1U PD=9.1U
M$94 \$115 \$167 CK7 VDDD pfet_03v3 L=0.28U W=3.9U AS=2.535P AD=2.535P PS=9.1U
+ PD=9.1U
M$95 \$991 Set VDDD VDDD pfet_03v3 L=0.28U W=3.9U AS=2.535P AD=2.535P PS=9.1U
+ PD=9.1U
M$96 \$116 \$115 \$991 VDDD pfet_03v3 L=0.28U W=3.9U AS=2.535P AD=2.535P
+ PS=9.1U PD=9.1U
M$97 \$992 \$116 VDDD VDDD pfet_03v3 L=0.28U W=3.9U AS=2.535P AD=2.535P PS=9.1U
+ PD=9.1U
M$98 \$117 clks \$992 VDDD pfet_03v3 L=0.28U W=3.9U AS=2.535P AD=2.535P PS=9.1U
+ PD=9.1U
M$99 \$115 \$166 \$117 VDDD pfet_03v3 L=0.28U W=3.9U AS=2.535P AD=2.535P
+ PS=9.1U PD=9.1U
M$100 \$119 \$166 \$116 VDDD pfet_03v3 L=0.28U W=3.9U AS=2.535P AD=2.535P
+ PS=9.1U PD=9.1U
M$101 \$993 clks VDDD VDDD pfet_03v3 L=0.28U W=3.9U AS=2.535P AD=2.535P PS=9.1U
+ PD=9.1U
M$102 CK6 \$119 \$993 VDDD pfet_03v3 L=0.28U W=3.9U AS=2.535P AD=2.535P PS=9.1U
+ PD=9.1U
M$103 \$994 CK6 VDDD VDDD pfet_03v3 L=0.28U W=3.9U AS=2.535P AD=2.535P PS=9.1U
+ PD=9.1U
M$104 \$118 Set \$994 VDDD pfet_03v3 L=0.28U W=3.9U AS=2.535P AD=2.535P PS=9.1U
+ PD=9.1U
M$105 \$119 \$167 \$118 VDDD pfet_03v3 L=0.28U W=3.9U AS=2.535P AD=2.535P
+ PS=9.1U PD=9.1U
M$106 \$121 \$170 CK6 VDDD pfet_03v3 L=0.28U W=3.9U AS=2.535P AD=2.535P PS=9.1U
+ PD=9.1U
M$107 \$995 Set VDDD VDDD pfet_03v3 L=0.28U W=3.9U AS=2.535P AD=2.535P PS=9.1U
+ PD=9.1U
M$108 \$122 \$121 \$995 VDDD pfet_03v3 L=0.28U W=3.9U AS=2.535P AD=2.535P
+ PS=9.1U PD=9.1U
M$109 \$996 \$122 VDDD VDDD pfet_03v3 L=0.28U W=3.9U AS=2.535P AD=2.535P
+ PS=9.1U PD=9.1U
M$110 \$123 clks \$996 VDDD pfet_03v3 L=0.28U W=3.9U AS=2.535P AD=2.535P
+ PS=9.1U PD=9.1U
M$111 \$121 \$169 \$123 VDDD pfet_03v3 L=0.28U W=3.9U AS=2.535P AD=2.535P
+ PS=9.1U PD=9.1U
M$112 \$125 \$169 \$122 VDDD pfet_03v3 L=0.28U W=3.9U AS=2.535P AD=2.535P
+ PS=9.1U PD=9.1U
M$113 \$997 clks VDDD VDDD pfet_03v3 L=0.28U W=3.9U AS=2.535P AD=2.535P PS=9.1U
+ PD=9.1U
M$114 CK5 \$125 \$997 VDDD pfet_03v3 L=0.28U W=3.9U AS=2.535P AD=2.535P PS=9.1U
+ PD=9.1U
M$115 \$998 CK5 VDDD VDDD pfet_03v3 L=0.28U W=3.9U AS=2.535P AD=2.535P PS=9.1U
+ PD=9.1U
M$116 \$124 Set \$998 VDDD pfet_03v3 L=0.28U W=3.9U AS=2.535P AD=2.535P PS=9.1U
+ PD=9.1U
M$117 \$125 \$170 \$124 VDDD pfet_03v3 L=0.28U W=3.9U AS=2.535P AD=2.535P
+ PS=9.1U PD=9.1U
M$118 \$127 \$173 CK5 VDDD pfet_03v3 L=0.28U W=3.9U AS=2.535P AD=2.535P PS=9.1U
+ PD=9.1U
M$119 \$999 Set VDDD VDDD pfet_03v3 L=0.28U W=3.9U AS=2.535P AD=2.535P PS=9.1U
+ PD=9.1U
M$120 \$128 \$127 \$999 VDDD pfet_03v3 L=0.28U W=3.9U AS=2.535P AD=2.535P
+ PS=9.1U PD=9.1U
M$121 \$1000 \$128 VDDD VDDD pfet_03v3 L=0.28U W=3.9U AS=2.535P AD=2.535P
+ PS=9.1U PD=9.1U
M$122 \$129 clks \$1000 VDDD pfet_03v3 L=0.28U W=3.9U AS=2.535P AD=2.535P
+ PS=9.1U PD=9.1U
M$123 \$127 \$172 \$129 VDDD pfet_03v3 L=0.28U W=3.9U AS=2.535P AD=2.535P
+ PS=9.1U PD=9.1U
M$124 \$131 \$172 \$128 VDDD pfet_03v3 L=0.28U W=3.9U AS=2.535P AD=2.535P
+ PS=9.1U PD=9.1U
M$125 \$1001 clks VDDD VDDD pfet_03v3 L=0.28U W=3.9U AS=2.535P AD=2.535P
+ PS=9.1U PD=9.1U
M$126 CK4 \$131 \$1001 VDDD pfet_03v3 L=0.28U W=3.9U AS=2.535P AD=2.535P
+ PS=9.1U PD=9.1U
M$127 \$1002 CK4 VDDD VDDD pfet_03v3 L=0.28U W=3.9U AS=2.535P AD=2.535P PS=9.1U
+ PD=9.1U
M$128 \$130 Set \$1002 VDDD pfet_03v3 L=0.28U W=3.9U AS=2.535P AD=2.535P
+ PS=9.1U PD=9.1U
M$129 \$131 \$173 \$130 VDDD pfet_03v3 L=0.28U W=3.9U AS=2.535P AD=2.535P
+ PS=9.1U PD=9.1U
M$130 \$133 \$176 CK4 VDDD pfet_03v3 L=0.28U W=3.9U AS=2.535P AD=2.535P PS=9.1U
+ PD=9.1U
M$131 \$1003 Set VDDD VDDD pfet_03v3 L=0.28U W=3.9U AS=2.535P AD=2.535P PS=9.1U
+ PD=9.1U
M$132 \$134 \$133 \$1003 VDDD pfet_03v3 L=0.28U W=3.9U AS=2.535P AD=2.535P
+ PS=9.1U PD=9.1U
M$133 \$1004 \$134 VDDD VDDD pfet_03v3 L=0.28U W=3.9U AS=2.535P AD=2.535P
+ PS=9.1U PD=9.1U
M$134 \$135 clks \$1004 VDDD pfet_03v3 L=0.28U W=3.9U AS=2.535P AD=2.535P
+ PS=9.1U PD=9.1U
M$135 \$133 \$175 \$135 VDDD pfet_03v3 L=0.28U W=3.9U AS=2.535P AD=2.535P
+ PS=9.1U PD=9.1U
M$136 \$137 \$175 \$134 VDDD pfet_03v3 L=0.28U W=3.9U AS=2.535P AD=2.535P
+ PS=9.1U PD=9.1U
M$137 \$1005 clks VDDD VDDD pfet_03v3 L=0.28U W=3.9U AS=2.535P AD=2.535P
+ PS=9.1U PD=9.1U
M$138 CK3 \$137 \$1005 VDDD pfet_03v3 L=0.28U W=3.9U AS=2.535P AD=2.535P
+ PS=9.1U PD=9.1U
M$139 \$1006 CK3 VDDD VDDD pfet_03v3 L=0.28U W=3.9U AS=2.535P AD=2.535P PS=9.1U
+ PD=9.1U
M$140 \$136 Set \$1006 VDDD pfet_03v3 L=0.28U W=3.9U AS=2.535P AD=2.535P
+ PS=9.1U PD=9.1U
M$141 \$137 \$176 \$136 VDDD pfet_03v3 L=0.28U W=3.9U AS=2.535P AD=2.535P
+ PS=9.1U PD=9.1U
M$142 \$139 \$179 CK3 VDDD pfet_03v3 L=0.28U W=3.9U AS=2.535P AD=2.535P PS=9.1U
+ PD=9.1U
M$143 \$1007 Set VDDD VDDD pfet_03v3 L=0.28U W=3.9U AS=2.535P AD=2.535P PS=9.1U
+ PD=9.1U
M$144 \$140 \$139 \$1007 VDDD pfet_03v3 L=0.28U W=3.9U AS=2.535P AD=2.535P
+ PS=9.1U PD=9.1U
M$145 \$1008 \$140 VDDD VDDD pfet_03v3 L=0.28U W=3.9U AS=2.535P AD=2.535P
+ PS=9.1U PD=9.1U
M$146 \$141 clks \$1008 VDDD pfet_03v3 L=0.28U W=3.9U AS=2.535P AD=2.535P
+ PS=9.1U PD=9.1U
M$147 \$139 \$178 \$141 VDDD pfet_03v3 L=0.28U W=3.9U AS=2.535P AD=2.535P
+ PS=9.1U PD=9.1U
M$148 \$143 \$178 \$140 VDDD pfet_03v3 L=0.28U W=3.9U AS=2.535P AD=2.535P
+ PS=9.1U PD=9.1U
M$149 \$1009 clks VDDD VDDD pfet_03v3 L=0.28U W=3.9U AS=2.535P AD=2.535P
+ PS=9.1U PD=9.1U
M$150 CK2 \$143 \$1009 VDDD pfet_03v3 L=0.28U W=3.9U AS=2.535P AD=2.535P
+ PS=9.1U PD=9.1U
M$151 \$1010 CK2 VDDD VDDD pfet_03v3 L=0.28U W=3.9U AS=2.535P AD=2.535P PS=9.1U
+ PD=9.1U
M$152 \$142 Set \$1010 VDDD pfet_03v3 L=0.28U W=3.9U AS=2.535P AD=2.535P
+ PS=9.1U PD=9.1U
M$153 \$143 \$179 \$142 VDDD pfet_03v3 L=0.28U W=3.9U AS=2.535P AD=2.535P
+ PS=9.1U PD=9.1U
M$154 \$145 \$182 CK2 VDDD pfet_03v3 L=0.28U W=3.9U AS=2.535P AD=2.535P PS=9.1U
+ PD=9.1U
M$155 \$1011 Set VDDD VDDD pfet_03v3 L=0.28U W=3.9U AS=2.535P AD=2.535P PS=9.1U
+ PD=9.1U
M$156 \$146 \$145 \$1011 VDDD pfet_03v3 L=0.28U W=3.9U AS=2.535P AD=2.535P
+ PS=9.1U PD=9.1U
M$157 \$1012 \$146 VDDD VDDD pfet_03v3 L=0.28U W=3.9U AS=2.535P AD=2.535P
+ PS=9.1U PD=9.1U
M$158 \$147 clks \$1012 VDDD pfet_03v3 L=0.28U W=3.9U AS=2.535P AD=2.535P
+ PS=9.1U PD=9.1U
M$159 \$145 \$181 \$147 VDDD pfet_03v3 L=0.28U W=3.9U AS=2.535P AD=2.535P
+ PS=9.1U PD=9.1U
M$160 \$150 \$181 \$146 VDDD pfet_03v3 L=0.28U W=3.9U AS=2.535P AD=2.535P
+ PS=9.1U PD=9.1U
M$161 \$1013 clks VDDD VDDD pfet_03v3 L=0.28U W=3.9U AS=2.535P AD=2.535P
+ PS=9.1U PD=9.1U
M$162 CK1 \$150 \$1013 VDDD pfet_03v3 L=0.28U W=3.9U AS=2.535P AD=2.535P
+ PS=9.1U PD=9.1U
M$163 \$1014 CK1 VDDD VDDD pfet_03v3 L=0.28U W=3.9U AS=2.535P AD=2.535P PS=9.1U
+ PD=9.1U
M$164 \$149 Set \$1014 VDDD pfet_03v3 L=0.28U W=3.9U AS=2.535P AD=2.535P
+ PS=9.1U PD=9.1U
M$165 \$150 \$182 \$149 VDDD pfet_03v3 L=0.28U W=3.9U AS=2.535P AD=2.535P
+ PS=9.1U PD=9.1U
M$166 \$1632 \$1806 \$1635 VDDD pfet_03v3 L=0.28U W=3.9U AS=2.535P AD=2.535P
+ PS=9.1U PD=9.1U
M$167 VDDD \$1635 \$2443 VDDD pfet_03v3 L=0.28U W=3.9U AS=2.535P AD=2.535P
+ PS=9.1U PD=9.1U
M$168 \$1633 clks VDDD VDDD pfet_03v3 L=0.28U W=3.9U AS=2.535P AD=2.535P
+ PS=9.1U PD=9.1U
M$169 \$1634 \$1633 VDDD VDDD pfet_03v3 L=0.28U W=3.9U AS=2.535P AD=2.535P
+ PS=9.1U PD=9.1U
M$170 \$2421 \$2558 \$2376 VDDD pfet_03v3 L=0.28U W=3.9U AS=2.535P AD=2.535P
+ PS=9.1U PD=9.1U
M$171 \$2957 Set \$2421 VDDD pfet_03v3 L=0.28U W=3.9U AS=2.535P AD=2.535P
+ PS=9.1U PD=9.1U
M$172 \$1600 \$1634 \$1635 VDDD pfet_03v3 L=0.28U W=3.9U AS=2.535P AD=2.535P
+ PS=9.1U PD=9.1U
M$173 VDDD \$1635 \$2957 VDDD pfet_03v3 L=0.28U W=3.9U AS=2.535P AD=2.535P
+ PS=9.1U PD=9.1U
M$174 \$2016 Set VDDD VDDD pfet_03v3 L=0.28U W=3.9U AS=2.535P AD=2.535P PS=9.1U
+ PD=9.1U
M$175 \$1601 \$1600 \$2016 VDDD pfet_03v3 L=0.28U W=3.9U AS=2.535P AD=2.535P
+ PS=9.1U PD=9.1U
M$176 \$2958 \$2376 \$1635 VDDD pfet_03v3 L=0.28U W=3.9U AS=2.535P AD=2.535P
+ PS=9.1U PD=9.1U
M$177 VDDD Reset \$2958 VDDD pfet_03v3 L=0.28U W=3.9U AS=2.535P AD=2.535P
+ PS=9.1U PD=9.1U
M$178 \$2017 \$1601 VDDD VDDD pfet_03v3 L=0.28U W=3.9U AS=2.535P AD=2.535P
+ PS=9.1U PD=9.1U
M$179 \$1602 Reset \$2017 VDDD pfet_03v3 L=0.28U W=3.9U AS=2.535P AD=2.535P
+ PS=9.1U PD=9.1U
M$180 \$2422 \$2557 \$2376 VDDD pfet_03v3 L=0.28U W=3.9U AS=2.535P AD=2.535P
+ PS=9.1U PD=9.1U
M$181 \$1600 \$1633 \$1602 VDDD pfet_03v3 L=0.28U W=3.9U AS=2.535P AD=2.535P
+ PS=9.1U PD=9.1U
M$182 \$2423 \$2557 \$2411 VDDD pfet_03v3 L=0.28U W=3.9U AS=2.535P AD=2.535P
+ PS=9.1U PD=9.1U
M$183 \$1605 \$1633 \$1601 VDDD pfet_03v3 L=0.28U W=3.9U AS=2.535P AD=2.535P
+ PS=9.1U PD=9.1U
M$184 \$2959 Reset \$2423 VDDD pfet_03v3 L=0.28U W=3.9U AS=2.535P AD=2.535P
+ PS=9.1U PD=9.1U
M$185 VDDD \$2422 \$2959 VDDD pfet_03v3 L=0.28U W=3.9U AS=2.535P AD=2.535P
+ PS=9.1U PD=9.1U
M$186 \$2018 Reset VDDD VDDD pfet_03v3 L=0.28U W=3.9U AS=2.535P AD=2.535P
+ PS=9.1U PD=9.1U
M$187 \$1603 \$1605 \$2018 VDDD pfet_03v3 L=0.28U W=3.9U AS=2.535P AD=2.535P
+ PS=9.1U PD=9.1U
M$188 \$2960 \$2411 \$2422 VDDD pfet_03v3 L=0.28U W=3.9U AS=2.535P AD=2.535P
+ PS=9.1U PD=9.1U
M$189 VDDD Set \$2960 VDDD pfet_03v3 L=0.28U W=3.9U AS=2.535P AD=2.535P PS=9.1U
+ PD=9.1U
M$190 \$2019 \$1603 VDDD VDDD pfet_03v3 L=0.28U W=3.9U AS=2.535P AD=2.535P
+ PS=9.1U PD=9.1U
M$191 D_C_1 \$2558 \$2411 VDDD pfet_03v3 L=0.28U W=3.9U AS=2.535P AD=2.535P
+ PS=9.1U PD=9.1U
M$192 \$1604 Set \$2019 VDDD pfet_03v3 L=0.28U W=3.9U AS=2.535P AD=2.535P
+ PS=9.1U PD=9.1U
M$193 \$1605 \$1634 \$1604 VDDD pfet_03v3 L=0.28U W=3.9U AS=2.535P AD=2.535P
+ PS=9.1U PD=9.1U
M$194 VDDD \$2557 \$2558 VDDD pfet_03v3 L=0.28U W=3.9U AS=2.535P AD=2.535P
+ PS=9.1U PD=9.1U
M$195 VDDD \$1631 \$2557 VDDD pfet_03v3 L=0.28U W=3.9U AS=2.535P AD=2.535P
+ PS=9.1U PD=9.1U
M$196 \$1636 \$1603 VDDD VDDD pfet_03v3 L=0.28U W=3.9U AS=2.535P AD=2.535P
+ PS=9.1U PD=9.1U
M$197 VDDD \$1806 \$1631 VDDD pfet_03v3 L=0.28U W=3.9U AS=2.535P AD=2.535P
+ PS=9.1U PD=9.1U
M$198 VDDD CK1 \$1806 VDDD pfet_03v3 L=0.28U W=3.9U AS=2.535P AD=2.535P PS=9.1U
+ PD=9.1U
M$199 \$1606 \$1820 \$1640 VDDD pfet_03v3 L=0.28U W=3.9U AS=2.535P AD=2.535P
+ PS=9.1U PD=9.1U
M$200 VDDD \$1640 \$2445 VDDD pfet_03v3 L=0.28U W=3.9U AS=2.535P AD=2.535P
+ PS=9.1U PD=9.1U
M$201 \$1638 clks VDDD VDDD pfet_03v3 L=0.28U W=3.9U AS=2.535P AD=2.535P
+ PS=9.1U PD=9.1U
M$202 \$1639 \$1638 VDDD VDDD pfet_03v3 L=0.28U W=3.9U AS=2.535P AD=2.535P
+ PS=9.1U PD=9.1U
M$203 \$2425 \$2560 \$2377 VDDD pfet_03v3 L=0.28U W=3.9U AS=2.535P AD=2.535P
+ PS=9.1U PD=9.1U
M$204 \$2961 Set \$2425 VDDD pfet_03v3 L=0.28U W=3.9U AS=2.535P AD=2.535P
+ PS=9.1U PD=9.1U
M$205 \$1607 \$1639 \$1640 VDDD pfet_03v3 L=0.28U W=3.9U AS=2.535P AD=2.535P
+ PS=9.1U PD=9.1U
M$206 VDDD \$1640 \$2961 VDDD pfet_03v3 L=0.28U W=3.9U AS=2.535P AD=2.535P
+ PS=9.1U PD=9.1U
M$207 \$2020 Set VDDD VDDD pfet_03v3 L=0.28U W=3.9U AS=2.535P AD=2.535P PS=9.1U
+ PD=9.1U
M$208 \$1608 \$1607 \$2020 VDDD pfet_03v3 L=0.28U W=3.9U AS=2.535P AD=2.535P
+ PS=9.1U PD=9.1U
M$209 \$2962 \$2377 \$1640 VDDD pfet_03v3 L=0.28U W=3.9U AS=2.535P AD=2.535P
+ PS=9.1U PD=9.1U
M$210 VDDD Reset \$2962 VDDD pfet_03v3 L=0.28U W=3.9U AS=2.535P AD=2.535P
+ PS=9.1U PD=9.1U
M$211 \$2021 \$1608 VDDD VDDD pfet_03v3 L=0.28U W=3.9U AS=2.535P AD=2.535P
+ PS=9.1U PD=9.1U
M$212 \$1609 Reset \$2021 VDDD pfet_03v3 L=0.28U W=3.9U AS=2.535P AD=2.535P
+ PS=9.1U PD=9.1U
M$213 \$2426 \$2559 \$2377 VDDD pfet_03v3 L=0.28U W=3.9U AS=2.535P AD=2.535P
+ PS=9.1U PD=9.1U
M$214 \$1607 \$1638 \$1609 VDDD pfet_03v3 L=0.28U W=3.9U AS=2.535P AD=2.535P
+ PS=9.1U PD=9.1U
M$215 \$2427 \$2559 \$2412 VDDD pfet_03v3 L=0.28U W=3.9U AS=2.535P AD=2.535P
+ PS=9.1U PD=9.1U
M$216 \$1612 \$1638 \$1608 VDDD pfet_03v3 L=0.28U W=3.9U AS=2.535P AD=2.535P
+ PS=9.1U PD=9.1U
M$217 \$2963 Reset \$2427 VDDD pfet_03v3 L=0.28U W=3.9U AS=2.535P AD=2.535P
+ PS=9.1U PD=9.1U
M$218 VDDD \$2426 \$2963 VDDD pfet_03v3 L=0.28U W=3.9U AS=2.535P AD=2.535P
+ PS=9.1U PD=9.1U
M$219 \$2022 Reset VDDD VDDD pfet_03v3 L=0.28U W=3.9U AS=2.535P AD=2.535P
+ PS=9.1U PD=9.1U
M$220 \$1610 \$1612 \$2022 VDDD pfet_03v3 L=0.28U W=3.9U AS=2.535P AD=2.535P
+ PS=9.1U PD=9.1U
M$221 \$2964 \$2412 \$2426 VDDD pfet_03v3 L=0.28U W=3.9U AS=2.535P AD=2.535P
+ PS=9.1U PD=9.1U
M$222 VDDD Set \$2964 VDDD pfet_03v3 L=0.28U W=3.9U AS=2.535P AD=2.535P PS=9.1U
+ PD=9.1U
M$223 \$2023 \$1610 VDDD VDDD pfet_03v3 L=0.28U W=3.9U AS=2.535P AD=2.535P
+ PS=9.1U PD=9.1U
M$224 D_C_2 \$2560 \$2412 VDDD pfet_03v3 L=0.28U W=3.9U AS=2.535P AD=2.535P
+ PS=9.1U PD=9.1U
M$225 \$1611 Set \$2023 VDDD pfet_03v3 L=0.28U W=3.9U AS=2.535P AD=2.535P
+ PS=9.1U PD=9.1U
M$226 \$1612 \$1639 \$1611 VDDD pfet_03v3 L=0.28U W=3.9U AS=2.535P AD=2.535P
+ PS=9.1U PD=9.1U
M$227 VDDD \$2559 \$2560 VDDD pfet_03v3 L=0.28U W=3.9U AS=2.535P AD=2.535P
+ PS=9.1U PD=9.1U
M$228 VDDD \$1637 \$2559 VDDD pfet_03v3 L=0.28U W=3.9U AS=2.535P AD=2.535P
+ PS=9.1U PD=9.1U
M$229 \$1641 \$1610 VDDD VDDD pfet_03v3 L=0.28U W=3.9U AS=2.535P AD=2.535P
+ PS=9.1U PD=9.1U
M$230 VDDD \$1820 \$1637 VDDD pfet_03v3 L=0.28U W=3.9U AS=2.535P AD=2.535P
+ PS=9.1U PD=9.1U
M$231 VDDD CK2 \$1820 VDDD pfet_03v3 L=0.28U W=3.9U AS=2.535P AD=2.535P PS=9.1U
+ PD=9.1U
M$232 \$1643 \$1833 \$1646 VDDD pfet_03v3 L=0.28U W=3.9U AS=2.535P AD=2.535P
+ PS=9.1U PD=9.1U
M$233 VDDD \$1646 \$2447 VDDD pfet_03v3 L=0.28U W=3.9U AS=2.535P AD=2.535P
+ PS=9.1U PD=9.1U
M$234 \$1644 clks VDDD VDDD pfet_03v3 L=0.28U W=3.9U AS=2.535P AD=2.535P
+ PS=9.1U PD=9.1U
M$235 \$1645 \$1644 VDDD VDDD pfet_03v3 L=0.28U W=3.9U AS=2.535P AD=2.535P
+ PS=9.1U PD=9.1U
M$236 \$2429 \$2562 \$2378 VDDD pfet_03v3 L=0.28U W=3.9U AS=2.535P AD=2.535P
+ PS=9.1U PD=9.1U
M$237 \$2965 Set \$2429 VDDD pfet_03v3 L=0.28U W=3.9U AS=2.535P AD=2.535P
+ PS=9.1U PD=9.1U
M$238 \$1613 \$1645 \$1646 VDDD pfet_03v3 L=0.28U W=3.9U AS=2.535P AD=2.535P
+ PS=9.1U PD=9.1U
M$239 VDDD \$1646 \$2965 VDDD pfet_03v3 L=0.28U W=3.9U AS=2.535P AD=2.535P
+ PS=9.1U PD=9.1U
M$240 \$2024 Set VDDD VDDD pfet_03v3 L=0.28U W=3.9U AS=2.535P AD=2.535P PS=9.1U
+ PD=9.1U
M$241 \$1614 \$1613 \$2024 VDDD pfet_03v3 L=0.28U W=3.9U AS=2.535P AD=2.535P
+ PS=9.1U PD=9.1U
M$242 \$2966 \$2378 \$1646 VDDD pfet_03v3 L=0.28U W=3.9U AS=2.535P AD=2.535P
+ PS=9.1U PD=9.1U
M$243 VDDD Reset \$2966 VDDD pfet_03v3 L=0.28U W=3.9U AS=2.535P AD=2.535P
+ PS=9.1U PD=9.1U
M$244 \$2025 \$1614 VDDD VDDD pfet_03v3 L=0.28U W=3.9U AS=2.535P AD=2.535P
+ PS=9.1U PD=9.1U
M$245 \$1615 Reset \$2025 VDDD pfet_03v3 L=0.28U W=3.9U AS=2.535P AD=2.535P
+ PS=9.1U PD=9.1U
M$246 \$2430 \$2561 \$2378 VDDD pfet_03v3 L=0.28U W=3.9U AS=2.535P AD=2.535P
+ PS=9.1U PD=9.1U
M$247 \$1613 \$1644 \$1615 VDDD pfet_03v3 L=0.28U W=3.9U AS=2.535P AD=2.535P
+ PS=9.1U PD=9.1U
M$248 \$2431 \$2561 \$2413 VDDD pfet_03v3 L=0.28U W=3.9U AS=2.535P AD=2.535P
+ PS=9.1U PD=9.1U
M$249 \$1618 \$1644 \$1614 VDDD pfet_03v3 L=0.28U W=3.9U AS=2.535P AD=2.535P
+ PS=9.1U PD=9.1U
M$250 \$2967 Reset \$2431 VDDD pfet_03v3 L=0.28U W=3.9U AS=2.535P AD=2.535P
+ PS=9.1U PD=9.1U
M$251 VDDD \$2430 \$2967 VDDD pfet_03v3 L=0.28U W=3.9U AS=2.535P AD=2.535P
+ PS=9.1U PD=9.1U
M$252 \$2026 Reset VDDD VDDD pfet_03v3 L=0.28U W=3.9U AS=2.535P AD=2.535P
+ PS=9.1U PD=9.1U
M$253 \$1616 \$1618 \$2026 VDDD pfet_03v3 L=0.28U W=3.9U AS=2.535P AD=2.535P
+ PS=9.1U PD=9.1U
M$254 \$2968 \$2413 \$2430 VDDD pfet_03v3 L=0.28U W=3.9U AS=2.535P AD=2.535P
+ PS=9.1U PD=9.1U
M$255 VDDD Set \$2968 VDDD pfet_03v3 L=0.28U W=3.9U AS=2.535P AD=2.535P PS=9.1U
+ PD=9.1U
M$256 \$2027 \$1616 VDDD VDDD pfet_03v3 L=0.28U W=3.9U AS=2.535P AD=2.535P
+ PS=9.1U PD=9.1U
M$257 D_C_3 \$2562 \$2413 VDDD pfet_03v3 L=0.28U W=3.9U AS=2.535P AD=2.535P
+ PS=9.1U PD=9.1U
M$258 \$1617 Set \$2027 VDDD pfet_03v3 L=0.28U W=3.9U AS=2.535P AD=2.535P
+ PS=9.1U PD=9.1U
M$259 \$1618 \$1645 \$1617 VDDD pfet_03v3 L=0.28U W=3.9U AS=2.535P AD=2.535P
+ PS=9.1U PD=9.1U
M$260 VDDD \$2561 \$2562 VDDD pfet_03v3 L=0.28U W=3.9U AS=2.535P AD=2.535P
+ PS=9.1U PD=9.1U
M$261 VDDD \$1642 \$2561 VDDD pfet_03v3 L=0.28U W=3.9U AS=2.535P AD=2.535P
+ PS=9.1U PD=9.1U
M$262 \$1647 \$1616 VDDD VDDD pfet_03v3 L=0.28U W=3.9U AS=2.535P AD=2.535P
+ PS=9.1U PD=9.1U
M$263 VDDD \$1833 \$1642 VDDD pfet_03v3 L=0.28U W=3.9U AS=2.535P AD=2.535P
+ PS=9.1U PD=9.1U
M$264 VDDD CK3 \$1833 VDDD pfet_03v3 L=0.28U W=3.9U AS=2.535P AD=2.535P PS=9.1U
+ PD=9.1U
M$265 \$1619 \$1846 \$1651 VDDD pfet_03v3 L=0.28U W=3.9U AS=2.535P AD=2.535P
+ PS=9.1U PD=9.1U
M$266 VDDD \$1651 \$2449 VDDD pfet_03v3 L=0.28U W=3.9U AS=2.535P AD=2.535P
+ PS=9.1U PD=9.1U
M$267 \$1649 clks VDDD VDDD pfet_03v3 L=0.28U W=3.9U AS=2.535P AD=2.535P
+ PS=9.1U PD=9.1U
M$268 \$1650 \$1649 VDDD VDDD pfet_03v3 L=0.28U W=3.9U AS=2.535P AD=2.535P
+ PS=9.1U PD=9.1U
M$269 \$2433 \$2564 \$2379 VDDD pfet_03v3 L=0.28U W=3.9U AS=2.535P AD=2.535P
+ PS=9.1U PD=9.1U
M$270 \$2969 Set \$2433 VDDD pfet_03v3 L=0.28U W=3.9U AS=2.535P AD=2.535P
+ PS=9.1U PD=9.1U
M$271 \$1620 \$1650 \$1651 VDDD pfet_03v3 L=0.28U W=3.9U AS=2.535P AD=2.535P
+ PS=9.1U PD=9.1U
M$272 VDDD \$1651 \$2969 VDDD pfet_03v3 L=0.28U W=3.9U AS=2.535P AD=2.535P
+ PS=9.1U PD=9.1U
M$273 \$2028 Set VDDD VDDD pfet_03v3 L=0.28U W=3.9U AS=2.535P AD=2.535P PS=9.1U
+ PD=9.1U
M$274 \$1621 \$1620 \$2028 VDDD pfet_03v3 L=0.28U W=3.9U AS=2.535P AD=2.535P
+ PS=9.1U PD=9.1U
M$275 \$2970 \$2379 \$1651 VDDD pfet_03v3 L=0.28U W=3.9U AS=2.535P AD=2.535P
+ PS=9.1U PD=9.1U
M$276 VDDD Reset \$2970 VDDD pfet_03v3 L=0.28U W=3.9U AS=2.535P AD=2.535P
+ PS=9.1U PD=9.1U
M$277 \$2029 \$1621 VDDD VDDD pfet_03v3 L=0.28U W=3.9U AS=2.535P AD=2.535P
+ PS=9.1U PD=9.1U
M$278 \$1622 Reset \$2029 VDDD pfet_03v3 L=0.28U W=3.9U AS=2.535P AD=2.535P
+ PS=9.1U PD=9.1U
M$279 \$2434 \$2563 \$2379 VDDD pfet_03v3 L=0.28U W=3.9U AS=2.535P AD=2.535P
+ PS=9.1U PD=9.1U
M$280 \$1620 \$1649 \$1622 VDDD pfet_03v3 L=0.28U W=3.9U AS=2.535P AD=2.535P
+ PS=9.1U PD=9.1U
M$281 \$2435 \$2563 \$2414 VDDD pfet_03v3 L=0.28U W=3.9U AS=2.535P AD=2.535P
+ PS=9.1U PD=9.1U
M$282 \$1652 \$1649 \$1621 VDDD pfet_03v3 L=0.28U W=3.9U AS=2.535P AD=2.535P
+ PS=9.1U PD=9.1U
M$283 \$2971 Reset \$2435 VDDD pfet_03v3 L=0.28U W=3.9U AS=2.535P AD=2.535P
+ PS=9.1U PD=9.1U
M$284 VDDD \$2434 \$2971 VDDD pfet_03v3 L=0.28U W=3.9U AS=2.535P AD=2.535P
+ PS=9.1U PD=9.1U
M$285 \$2030 Reset VDDD VDDD pfet_03v3 L=0.28U W=3.9U AS=2.535P AD=2.535P
+ PS=9.1U PD=9.1U
M$286 \$1623 \$1652 \$2030 VDDD pfet_03v3 L=0.28U W=3.9U AS=2.535P AD=2.535P
+ PS=9.1U PD=9.1U
M$287 \$2972 \$2414 \$2434 VDDD pfet_03v3 L=0.28U W=3.9U AS=2.535P AD=2.535P
+ PS=9.1U PD=9.1U
M$288 VDDD Set \$2972 VDDD pfet_03v3 L=0.28U W=3.9U AS=2.535P AD=2.535P PS=9.1U
+ PD=9.1U
M$289 \$2031 \$1623 VDDD VDDD pfet_03v3 L=0.28U W=3.9U AS=2.535P AD=2.535P
+ PS=9.1U PD=9.1U
M$290 D_C_4 \$2564 \$2414 VDDD pfet_03v3 L=0.28U W=3.9U AS=2.535P AD=2.535P
+ PS=9.1U PD=9.1U
M$291 \$1624 Set \$2031 VDDD pfet_03v3 L=0.28U W=3.9U AS=2.535P AD=2.535P
+ PS=9.1U PD=9.1U
M$292 \$1652 \$1650 \$1624 VDDD pfet_03v3 L=0.28U W=3.9U AS=2.535P AD=2.535P
+ PS=9.1U PD=9.1U
M$293 VDDD \$2563 \$2564 VDDD pfet_03v3 L=0.28U W=3.9U AS=2.535P AD=2.535P
+ PS=9.1U PD=9.1U
M$294 VDDD \$1648 \$2563 VDDD pfet_03v3 L=0.28U W=3.9U AS=2.535P AD=2.535P
+ PS=9.1U PD=9.1U
M$295 \$1653 \$1623 VDDD VDDD pfet_03v3 L=0.28U W=3.9U AS=2.535P AD=2.535P
+ PS=9.1U PD=9.1U
M$296 VDDD \$1846 \$1648 VDDD pfet_03v3 L=0.28U W=3.9U AS=2.535P AD=2.535P
+ PS=9.1U PD=9.1U
M$297 VDDD CK4 \$1846 VDDD pfet_03v3 L=0.28U W=3.9U AS=2.535P AD=2.535P PS=9.1U
+ PD=9.1U
M$298 \$1625 \$1859 \$1657 VDDD pfet_03v3 L=0.28U W=3.9U AS=2.535P AD=2.535P
+ PS=9.1U PD=9.1U
M$299 VDDD \$1657 \$2451 VDDD pfet_03v3 L=0.28U W=3.9U AS=2.535P AD=2.535P
+ PS=9.1U PD=9.1U
M$300 \$1655 clks VDDD VDDD pfet_03v3 L=0.28U W=3.9U AS=2.535P AD=2.535P
+ PS=9.1U PD=9.1U
M$301 \$1656 \$1655 VDDD VDDD pfet_03v3 L=0.28U W=3.9U AS=2.535P AD=2.535P
+ PS=9.1U PD=9.1U
M$302 \$2437 \$2566 \$2380 VDDD pfet_03v3 L=0.28U W=3.9U AS=2.535P AD=2.535P
+ PS=9.1U PD=9.1U
M$303 \$2973 Set \$2437 VDDD pfet_03v3 L=0.28U W=3.9U AS=2.535P AD=2.535P
+ PS=9.1U PD=9.1U
M$304 \$1626 \$1656 \$1657 VDDD pfet_03v3 L=0.28U W=3.9U AS=2.535P AD=2.535P
+ PS=9.1U PD=9.1U
M$305 VDDD \$1657 \$2973 VDDD pfet_03v3 L=0.28U W=3.9U AS=2.535P AD=2.535P
+ PS=9.1U PD=9.1U
M$306 \$2032 Set VDDD VDDD pfet_03v3 L=0.28U W=3.9U AS=2.535P AD=2.535P PS=9.1U
+ PD=9.1U
M$307 \$1627 \$1626 \$2032 VDDD pfet_03v3 L=0.28U W=3.9U AS=2.535P AD=2.535P
+ PS=9.1U PD=9.1U
M$308 \$2974 \$2380 \$1657 VDDD pfet_03v3 L=0.28U W=3.9U AS=2.535P AD=2.535P
+ PS=9.1U PD=9.1U
M$309 VDDD Reset \$2974 VDDD pfet_03v3 L=0.28U W=3.9U AS=2.535P AD=2.535P
+ PS=9.1U PD=9.1U
M$310 \$2033 \$1627 VDDD VDDD pfet_03v3 L=0.28U W=3.9U AS=2.535P AD=2.535P
+ PS=9.1U PD=9.1U
M$311 \$1628 Reset \$2033 VDDD pfet_03v3 L=0.28U W=3.9U AS=2.535P AD=2.535P
+ PS=9.1U PD=9.1U
M$312 \$2438 \$2565 \$2380 VDDD pfet_03v3 L=0.28U W=3.9U AS=2.535P AD=2.535P
+ PS=9.1U PD=9.1U
M$313 \$1626 \$1655 \$1628 VDDD pfet_03v3 L=0.28U W=3.9U AS=2.535P AD=2.535P
+ PS=9.1U PD=9.1U
M$314 \$2439 \$2565 \$2415 VDDD pfet_03v3 L=0.28U W=3.9U AS=2.535P AD=2.535P
+ PS=9.1U PD=9.1U
M$315 \$1658 \$1655 \$1627 VDDD pfet_03v3 L=0.28U W=3.9U AS=2.535P AD=2.535P
+ PS=9.1U PD=9.1U
M$316 \$2975 Reset \$2439 VDDD pfet_03v3 L=0.28U W=3.9U AS=2.535P AD=2.535P
+ PS=9.1U PD=9.1U
M$317 VDDD \$2438 \$2975 VDDD pfet_03v3 L=0.28U W=3.9U AS=2.535P AD=2.535P
+ PS=9.1U PD=9.1U
M$318 \$2034 Reset VDDD VDDD pfet_03v3 L=0.28U W=3.9U AS=2.535P AD=2.535P
+ PS=9.1U PD=9.1U
M$319 \$1629 \$1658 \$2034 VDDD pfet_03v3 L=0.28U W=3.9U AS=2.535P AD=2.535P
+ PS=9.1U PD=9.1U
M$320 \$2976 \$2415 \$2438 VDDD pfet_03v3 L=0.28U W=3.9U AS=2.535P AD=2.535P
+ PS=9.1U PD=9.1U
M$321 VDDD Set \$2976 VDDD pfet_03v3 L=0.28U W=3.9U AS=2.535P AD=2.535P PS=9.1U
+ PD=9.1U
M$322 \$2035 \$1629 VDDD VDDD pfet_03v3 L=0.28U W=3.9U AS=2.535P AD=2.535P
+ PS=9.1U PD=9.1U
M$323 D_C_5 \$2566 \$2415 VDDD pfet_03v3 L=0.28U W=3.9U AS=2.535P AD=2.535P
+ PS=9.1U PD=9.1U
M$324 \$1630 Set \$2035 VDDD pfet_03v3 L=0.28U W=3.9U AS=2.535P AD=2.535P