* Extracted by KLayout with GF180MCU LVS runset on : 12/12/2023 18:29

.SUBCKT CM_p_net IN OUT8 OUT10 OUT12 OUT7 OUT9 OUT11 OUT2 OUT4 OUT6 OUT1 OUT3
+ OUT5 VDD
M$1 VDD VDD VDD VDD pfet_03v3 L=2U W=2U AS=1.3P AD=1.3P PS=5.3U PD=5.3U
M$2 VDD VDD VDD VDD pfet_03v3 L=2U W=2U AS=1.3P AD=1.3P PS=5.3U PD=5.3U
M$3 VDD VDD VDD VDD pfet_03v3 L=2U W=2U AS=1.3P AD=0.84P PS=5.3U PD=2.84U
M$4 VDD VDD VDD VDD pfet_03v3 L=2U W=2U AS=0.84P AD=0.84P PS=2.84U PD=2.84U
M$5 VDD VDD VDD VDD pfet_03v3 L=2U W=2U AS=0.84P AD=1.3P PS=2.84U PD=5.3U
M$6 VDD VDD VDD VDD pfet_03v3 L=2U W=2U AS=1.3P AD=1.3P PS=5.3U PD=5.3U
M$7 VDD VDD VDD VDD pfet_03v3 L=2U W=2U AS=1.3P AD=1.3P PS=5.3U PD=5.3U
M$8 VDD VDD VDD VDD pfet_03v3 L=2U W=2U AS=1.3P AD=1.3P PS=5.3U PD=5.3U
M$9 VDD VDD VDD VDD pfet_03v3 L=2U W=2U AS=1.3P AD=1.3P PS=5.3U PD=5.3U
M$10 VDD VDD VDD VDD pfet_03v3 L=2U W=2U AS=1.3P AD=0.84P PS=5.3U PD=2.84U
M$11 VDD VDD VDD VDD pfet_03v3 L=2U W=2U AS=0.84P AD=0.84P PS=2.84U PD=2.84U
M$12 VDD VDD VDD VDD pfet_03v3 L=2U W=2U AS=0.84P AD=1.3P PS=2.84U PD=5.3U
M$13 VDD VDD VDD VDD pfet_03v3 L=2U W=2U AS=1.3P AD=1.3P PS=5.3U PD=5.3U
M$14 VDD VDD VDD VDD pfet_03v3 L=2U W=2U AS=1.3P AD=1.3P PS=5.3U PD=5.3U
M$15 VDD VDD VDD VDD pfet_03v3 L=2U W=2U AS=1.3P AD=1.3P PS=5.3U PD=5.3U
M$16 VDD VDD VDD VDD pfet_03v3 L=2U W=2U AS=1.3P AD=1.3P PS=5.3U PD=5.3U
M$17 VDD VDD VDD VDD pfet_03v3 L=2U W=2U AS=1.3P AD=0.84P PS=5.3U PD=2.84U
M$18 VDD VDD VDD VDD pfet_03v3 L=2U W=2U AS=0.84P AD=0.84P PS=2.84U PD=2.84U
M$19 VDD VDD VDD VDD pfet_03v3 L=2U W=2U AS=0.84P AD=1.3P PS=2.84U PD=5.3U
M$20 VDD VDD VDD VDD pfet_03v3 L=2U W=2U AS=1.3P AD=1.3P PS=5.3U PD=5.3U
M$21 VDD VDD VDD VDD pfet_03v3 L=2U W=2U AS=1.3P AD=1.3P PS=5.3U PD=5.3U
M$22 VDD VDD VDD VDD pfet_03v3 L=2U W=2U AS=1.3P AD=1.3P PS=5.3U PD=5.3U
M$23 \$23 IN \$22 VDD pfet_03v3 L=2U W=2U AS=1.3P AD=1.3P PS=5.3U PD=5.3U
M$24 \$24 IN \$23 VDD pfet_03v3 L=2U W=2U AS=1.3P AD=0.84P PS=5.3U PD=2.84U
M$25 \$25 IN \$24 VDD pfet_03v3 L=2U W=2U AS=0.84P AD=0.84P PS=2.84U PD=2.84U
M$26 \$26 IN \$25 VDD pfet_03v3 L=2U W=2U AS=0.84P AD=1.3P PS=2.84U PD=5.3U
M$27 VDD IN \$26 VDD pfet_03v3 L=2U W=2U AS=1.3P AD=1.3P PS=5.3U PD=5.3U
M$28 VDD VDD VDD VDD pfet_03v3 L=2U W=2U AS=1.3P AD=1.3P PS=5.3U PD=5.3U
M$29 VDD VDD VDD VDD pfet_03v3 L=2U W=2U AS=1.3P AD=1.3P PS=5.3U PD=5.3U
M$30 \$28 IN \$27 VDD pfet_03v3 L=2U W=2U AS=1.3P AD=1.3P PS=5.3U PD=5.3U
M$31 \$29 IN \$28 VDD pfet_03v3 L=2U W=2U AS=1.3P AD=0.84P PS=5.3U PD=2.84U
M$32 \$30 IN \$29 VDD pfet_03v3 L=2U W=2U AS=0.84P AD=0.84P PS=2.84U PD=2.84U
M$33 \$31 IN \$30 VDD pfet_03v3 L=2U W=2U AS=0.84P AD=1.3P PS=2.84U PD=5.3U
M$34 VDD IN \$31 VDD pfet_03v3 L=2U W=2U AS=1.3P AD=1.3P PS=5.3U PD=5.3U
M$35 VDD VDD VDD VDD pfet_03v3 L=2U W=2U AS=1.3P AD=1.3P PS=5.3U PD=5.3U
M$36 VDD VDD VDD VDD pfet_03v3 L=2U W=2U AS=1.3P AD=1.3P PS=5.3U PD=5.3U
M$37 \$33 IN \$32 VDD pfet_03v3 L=2U W=2U AS=1.3P AD=1.3P PS=5.3U PD=5.3U
M$38 \$34 IN \$33 VDD pfet_03v3 L=2U W=2U AS=1.3P AD=0.84P PS=5.3U PD=2.84U
M$39 \$35 IN \$34 VDD pfet_03v3 L=2U W=2U AS=0.84P AD=0.84P PS=2.84U PD=2.84U
M$40 \$36 IN \$35 VDD pfet_03v3 L=2U W=2U AS=0.84P AD=1.3P PS=2.84U PD=5.3U
M$41 VDD IN \$36 VDD pfet_03v3 L=2U W=2U AS=1.3P AD=1.3P PS=5.3U PD=5.3U
M$42 VDD VDD VDD VDD pfet_03v3 L=2U W=2U AS=1.3P AD=1.3P PS=5.3U PD=5.3U
M$43 VDD VDD VDD VDD pfet_03v3 L=2U W=2U AS=1.3P AD=1.3P PS=5.3U PD=5.3U
M$44 \$61 IN VDD VDD pfet_03v3 L=2U W=2U AS=1.3P AD=1.3P PS=5.3U PD=5.3U
M$45 \$62 IN \$61 VDD pfet_03v3 L=2U W=2U AS=1.3P AD=0.84P PS=5.3U PD=2.84U
M$46 \$63 IN \$62 VDD pfet_03v3 L=2U W=2U AS=0.84P AD=0.84P PS=2.84U PD=2.84U
M$47 \$64 IN \$63 VDD pfet_03v3 L=2U W=2U AS=0.84P AD=1.3P PS=2.84U PD=5.3U
M$48 \$65 IN \$64 VDD pfet_03v3 L=2U W=2U AS=1.3P AD=1.3P PS=5.3U PD=5.3U
M$49 VDD VDD VDD VDD pfet_03v3 L=2U W=2U AS=1.3P AD=1.3P PS=5.3U PD=5.3U
M$50 VDD VDD VDD VDD pfet_03v3 L=2U W=2U AS=1.3P AD=1.3P PS=5.3U PD=5.3U
M$51 \$66 IN VDD VDD pfet_03v3 L=2U W=2U AS=1.3P AD=1.3P PS=5.3U PD=5.3U
M$52 \$67 IN \$66 VDD pfet_03v3 L=2U W=2U AS=1.3P AD=0.84P PS=5.3U PD=2.84U
M$53 \$68 IN \$67 VDD pfet_03v3 L=2U W=2U AS=0.84P AD=0.84P PS=2.84U PD=2.84U
M$54 \$69 IN \$68 VDD pfet_03v3 L=2U W=2U AS=0.84P AD=1.3P PS=2.84U PD=5.3U
M$55 \$70 IN \$69 VDD pfet_03v3 L=2U W=2U AS=1.3P AD=1.3P PS=5.3U PD=5.3U
M$56 VDD VDD VDD VDD pfet_03v3 L=2U W=2U AS=1.3P AD=1.3P PS=5.3U PD=5.3U
M$57 VDD VDD VDD VDD pfet_03v3 L=2U W=2U AS=1.3P AD=1.3P PS=5.3U PD=5.3U
M$58 \$71 IN VDD VDD pfet_03v3 L=2U W=2U AS=1.3P AD=1.3P PS=5.3U PD=5.3U
M$59 \$72 IN \$71 VDD pfet_03v3 L=2U W=2U AS=1.3P AD=0.84P PS=5.3U PD=2.84U
M$60 \$73 IN \$72 VDD pfet_03v3 L=2U W=2U AS=0.84P AD=0.84P PS=2.84U PD=2.84U
M$61 \$74 IN \$73 VDD pfet_03v3 L=2U W=2U AS=0.84P AD=1.3P PS=2.84U PD=5.3U
M$62 \$75 IN \$74 VDD pfet_03v3 L=2U W=2U AS=1.3P AD=1.3P PS=5.3U PD=5.3U
M$63 VDD VDD VDD VDD pfet_03v3 L=2U W=2U AS=1.3P AD=1.3P PS=5.3U PD=5.3U
M$64 VDD VDD VDD VDD pfet_03v3 L=2U W=2U AS=1.3P AD=1.3P PS=5.3U PD=5.3U
M$65 \$98 IN \$97 VDD pfet_03v3 L=2U W=2U AS=1.3P AD=1.3P PS=5.3U PD=5.3U
M$66 \$99 IN \$98 VDD pfet_03v3 L=2U W=2U AS=1.3P AD=0.84P PS=5.3U PD=2.84U
M$67 \$100 IN \$99 VDD pfet_03v3 L=2U W=2U AS=0.84P AD=0.84P PS=2.84U PD=2.84U
M$68 \$101 IN \$100 VDD pfet_03v3 L=2U W=2U AS=0.84P AD=1.3P PS=2.84U PD=5.3U
M$69 \$65 IN \$101 VDD pfet_03v3 L=2U W=2U AS=1.3P AD=1.3P PS=5.3U PD=5.3U
M$70 VDD VDD VDD VDD pfet_03v3 L=2U W=2U AS=1.3P AD=1.3P PS=5.3U PD=5.3U
M$71 VDD VDD VDD VDD pfet_03v3 L=2U W=2U AS=1.3P AD=1.3P PS=5.3U PD=5.3U
M$72 \$103 IN \$102 VDD pfet_03v3 L=2U W=2U AS=1.3P AD=1.3P PS=5.3U PD=5.3U
M$73 \$104 IN \$103 VDD pfet_03v3 L=2U W=2U AS=1.3P AD=0.84P PS=5.3U PD=2.84U
M$74 \$105 IN \$104 VDD pfet_03v3 L=2U W=2U AS=0.84P AD=0.84P PS=2.84U PD=2.84U
M$75 \$106 IN \$105 VDD pfet_03v3 L=2U W=2U AS=0.84P AD=1.3P PS=2.84U PD=5.3U
M$76 \$70 IN \$106 VDD pfet_03v3 L=2U W=2U AS=1.3P AD=1.3P PS=5.3U PD=5.3U
M$77 VDD VDD VDD VDD pfet_03v3 L=2U W=2U AS=1.3P AD=1.3P PS=5.3U PD=5.3U
M$78 VDD VDD VDD VDD pfet_03v3 L=2U W=2U AS=1.3P AD=1.3P PS=5.3U PD=5.3U
M$79 \$108 IN \$107 VDD pfet_03v3 L=2U W=2U AS=1.3P AD=1.3P PS=5.3U PD=5.3U
M$80 \$109 IN \$108 VDD pfet_03v3 L=2U W=2U AS=1.3P AD=0.84P PS=5.3U PD=2.84U
M$81 \$110 IN \$109 VDD pfet_03v3 L=2U W=2U AS=0.84P AD=0.84P PS=2.84U PD=2.84U
M$82 \$111 IN \$110 VDD pfet_03v3 L=2U W=2U AS=0.84P AD=1.3P PS=2.84U PD=5.3U
M$83 \$75 IN \$111 VDD pfet_03v3 L=2U W=2U AS=1.3P AD=1.3P PS=5.3U PD=5.3U
M$84 VDD VDD VDD VDD pfet_03v3 L=2U W=2U AS=1.3P AD=1.3P PS=5.3U PD=5.3U
M$85 VDD VDD VDD VDD pfet_03v3 L=2U W=2U AS=1.3P AD=1.3P PS=5.3U PD=5.3U
M$86 \$130 IN \$97 VDD pfet_03v3 L=2U W=2U AS=1.3P AD=1.3P PS=5.3U PD=5.3U
M$87 \$131 IN \$130 VDD pfet_03v3 L=2U W=2U AS=1.3P AD=0.84P PS=5.3U PD=2.84U
M$88 \$132 IN \$131 VDD pfet_03v3 L=2U W=2U AS=0.84P AD=0.84P PS=2.84U PD=2.84U
M$89 \$133 IN \$132 VDD pfet_03v3 L=2U W=2U AS=0.84P AD=1.3P PS=2.84U PD=5.3U
M$90 \$134 IN \$133 VDD pfet_03v3 L=2U W=2U AS=1.3P AD=1.3P PS=5.3U PD=5.3U
M$91 VDD VDD VDD VDD pfet_03v3 L=2U W=2U AS=1.3P AD=1.3P PS=5.3U PD=5.3U
M$92 VDD VDD VDD VDD pfet_03v3 L=2U W=2U AS=1.3P AD=1.3P PS=5.3U PD=5.3U
M$93 \$135 IN \$102 VDD pfet_03v3 L=2U W=2U AS=1.3P AD=1.3P PS=5.3U PD=5.3U
M$94 \$136 IN \$135 VDD pfet_03v3 L=2U W=2U AS=1.3P AD=0.84P PS=5.3U PD=2.84U
M$95 \$137 IN \$136 VDD pfet_03v3 L=2U W=2U AS=0.84P AD=0.84P PS=2.84U PD=2.84U
M$96 \$138 IN \$137 VDD pfet_03v3 L=2U W=2U AS=0.84P AD=1.3P PS=2.84U PD=5.3U
M$97 \$139 IN \$138 VDD pfet_03v3 L=2U W=2U AS=1.3P AD=1.3P PS=5.3U PD=5.3U
M$98 VDD VDD VDD VDD pfet_03v3 L=2U W=2U AS=1.3P AD=1.3P PS=5.3U PD=5.3U
M$99 VDD VDD VDD VDD pfet_03v3 L=2U W=2U AS=1.3P AD=1.3P PS=5.3U PD=5.3U
M$100 \$140 IN \$107 VDD pfet_03v3 L=2U W=2U AS=1.3P AD=1.3P PS=5.3U PD=5.3U
M$101 \$141 IN \$140 VDD pfet_03v3 L=2U W=2U AS=1.3P AD=0.84P PS=5.3U PD=2.84U
M$102 \$142 IN \$141 VDD pfet_03v3 L=2U W=2U AS=0.84P AD=0.84P PS=2.84U PD=2.84U
M$103 \$143 IN \$142 VDD pfet_03v3 L=2U W=2U AS=0.84P AD=1.3P PS=2.84U PD=5.3U
M$104 \$144 IN \$143 VDD pfet_03v3 L=2U W=2U AS=1.3P AD=1.3P PS=5.3U PD=5.3U
M$105 VDD VDD VDD VDD pfet_03v3 L=2U W=2U AS=1.3P AD=1.3P PS=5.3U PD=5.3U
M$106 VDD VDD VDD VDD pfet_03v3 L=2U W=2U AS=1.3P AD=1.3P PS=5.3U PD=5.3U
M$107 \$172 IN \$22 VDD pfet_03v3 L=2U W=2U AS=1.3P AD=1.3P PS=5.3U PD=5.3U
M$108 IN IN VDD VDD pfet_03v3 L=2U W=2U AS=1.3P AD=0.84P PS=5.3U PD=2.84U
M$109 VDD IN IN VDD pfet_03v3 L=2U W=2U AS=0.84P AD=0.84P PS=2.84U PD=2.84U
M$110 IN IN VDD VDD pfet_03v3 L=2U W=2U AS=0.84P AD=1.3P PS=2.84U PD=5.3U
M$111 \$174 IN OUT8 VDD pfet_03v3 L=2U W=2U AS=1.3P AD=1.3P PS=5.3U PD=5.3U
M$112 VDD VDD VDD VDD pfet_03v3 L=2U W=2U AS=1.3P AD=1.3P PS=5.3U PD=5.3U
M$113 VDD VDD VDD VDD pfet_03v3 L=2U W=2U AS=1.3P AD=1.3P PS=5.3U PD=5.3U
M$114 \$175 IN \$27 VDD pfet_03v3 L=2U W=2U AS=1.3P AD=1.3P PS=5.3U PD=5.3U
M$115 IN IN VDD VDD pfet_03v3 L=2U W=2U AS=1.3P AD=0.84P PS=5.3U PD=2.84U
M$116 VDD IN IN VDD pfet_03v3 L=2U W=2U AS=0.84P AD=0.84P PS=2.84U PD=2.84U
M$117 IN IN VDD VDD pfet_03v3 L=2U W=2U AS=0.84P AD=1.3P PS=2.84U PD=5.3U
M$118 \$177 IN OUT10 VDD pfet_03v3 L=2U W=2U AS=1.3P AD=1.3P PS=5.3U PD=5.3U
M$119 VDD VDD VDD VDD pfet_03v3 L=2U W=2U AS=1.3P AD=1.3P PS=5.3U PD=5.3U
M$120 VDD VDD VDD VDD pfet_03v3 L=2U W=2U AS=1.3P AD=1.3P PS=5.3U PD=5.3U
M$121 \$178 IN \$32 VDD pfet_03v3 L=2U W=2U AS=1.3P AD=1.3P PS=5.3U PD=5.3U
M$122 IN IN VDD VDD pfet_03v3 L=2U W=2U AS=1.3P AD=0.84P PS=5.3U PD=2.84U
M$123 VDD IN IN VDD pfet_03v3 L=2U W=2U AS=0.84P AD=0.84P PS=2.84U PD=2.84U
M$124 IN IN VDD VDD pfet_03v3 L=2U W=2U AS=0.84P AD=1.3P PS=2.84U PD=5.3U
M$125 \$180 IN OUT12 VDD pfet_03v3 L=2U W=2U AS=1.3P AD=1.3P PS=5.3U PD=5.3U
M$126 VDD VDD VDD VDD pfet_03v3 L=2U W=2U AS=1.3P AD=1.3P PS=5.3U PD=5.3U
M$127 VDD VDD VDD VDD pfet_03v3 L=2U W=2U AS=1.3P AD=1.3P PS=5.3U PD=5.3U
M$128 \$172 IN \$214 VDD pfet_03v3 L=2U W=2U AS=1.3P AD=1.3P PS=5.3U PD=5.3U
M$129 VDD IN IN VDD pfet_03v3 L=2U W=2U AS=1.3P AD=0.84P PS=5.3U PD=2.84U
M$130 IN IN VDD VDD pfet_03v3 L=2U W=2U AS=0.84P AD=0.84P PS=2.84U PD=2.84U
M$131 VDD IN IN VDD pfet_03v3 L=2U W=2U AS=0.84P AD=1.3P PS=2.84U PD=5.3U
M$132 \$174 IN \$215 VDD pfet_03v3 L=2U W=2U AS=1.3P AD=1.3P PS=5.3U PD=5.3U
M$133 VDD VDD VDD VDD pfet_03v3 L=2U W=2U AS=1.3P AD=1.3P PS=5.3U PD=5.3U
M$134 VDD VDD VDD VDD pfet_03v3 L=2U W=2U AS=1.3P AD=1.3P PS=5.3U PD=5.3U
M$135 \$175 IN \$216 VDD pfet_03v3 L=2U W=2U AS=1.3P AD=1.3P PS=5.3U PD=5.3U
M$136 VDD IN IN VDD pfet_03v3 L=2U W=2U AS=1.3P AD=0.84P PS=5.3U PD=2.84U
M$137 IN IN VDD VDD pfet_03v3 L=2U W=2U AS=0.84P AD=0.84P PS=2.84U PD=2.84U
M$138 VDD IN IN VDD pfet_03v3 L=2U W=2U AS=0.84P AD=1.3P PS=2.84U PD=5.3U
M$139 \$177 IN \$217 VDD pfet_03v3 L=2U W=2U AS=1.3P AD=1.3P PS=5.3U PD=5.3U
M$140 VDD VDD VDD VDD pfet_03v3 L=2U W=2U AS=1.3P AD=1.3P PS=5.3U PD=5.3U
M$141 VDD VDD VDD VDD pfet_03v3 L=2U W=2U AS=1.3P AD=1.3P PS=5.3U PD=5.3U
M$142 \$178 IN \$218 VDD pfet_03v3 L=2U W=2U AS=1.3P AD=1.3P PS=5.3U PD=5.3U
M$143 VDD IN IN VDD pfet_03v3 L=2U W=2U AS=1.3P AD=0.84P PS=5.3U PD=2.84U
M$144 IN IN VDD VDD pfet_03v3 L=2U W=2U AS=0.84P AD=0.84P PS=2.84U PD=2.84U
M$145 VDD IN IN VDD pfet_03v3 L=2U W=2U AS=0.84P AD=1.3P PS=2.84U PD=5.3U
M$146 \$180 IN \$219 VDD pfet_03v3 L=2U W=2U AS=1.3P AD=1.3P PS=5.3U PD=5.3U
M$147 VDD VDD VDD VDD pfet_03v3 L=2U W=2U AS=1.3P AD=1.3P PS=5.3U PD=5.3U
M$148 VDD VDD VDD VDD pfet_03v3 L=2U W=2U AS=1.3P AD=1.3P PS=5.3U PD=5.3U
M$149 \$248 IN \$247 VDD pfet_03v3 L=2U W=2U AS=1.3P AD=1.3P PS=5.3U PD=5.3U
M$150 \$249 IN \$248 VDD pfet_03v3 L=2U W=2U AS=1.3P AD=0.84P PS=5.3U PD=2.84U
M$151 \$250 IN \$249 VDD pfet_03v3 L=2U W=2U AS=0.84P AD=0.84P PS=2.84U PD=2.84U
M$152 \$251 IN \$250 VDD pfet_03v3 L=2U W=2U AS=0.84P AD=1.3P PS=2.84U PD=5.3U
M$153 \$134 IN \$251 VDD pfet_03v3 L=2U W=2U AS=1.3P AD=1.3P PS=5.3U PD=5.3U
M$154 VDD VDD VDD VDD pfet_03v3 L=2U W=2U AS=1.3P AD=1.3P PS=5.3U PD=5.3U
M$155 VDD VDD VDD VDD pfet_03v3 L=2U W=2U AS=1.3P AD=1.3P PS=5.3U PD=5.3U
M$156 \$253 IN \$252 VDD pfet_03v3 L=2U W=2U AS=1.3P AD=1.3P PS=5.3U PD=5.3U
M$157 \$254 IN \$253 VDD pfet_03v3 L=2U W=2U AS=1.3P AD=0.84P PS=5.3U PD=2.84U
M$158 \$255 IN \$254 VDD pfet_03v3 L=2U W=2U AS=0.84P AD=0.84P PS=2.84U PD=2.84U
M$159 \$256 IN \$255 VDD pfet_03v3 L=2U W=2U AS=0.84P AD=1.3P PS=2.84U PD=5.3U
M$160 \$139 IN \$256 VDD pfet_03v3 L=2U W=2U AS=1.3P AD=1.3P PS=5.3U PD=5.3U
M$161 VDD VDD VDD VDD pfet_03v3 L=2U W=2U AS=1.3P AD=1.3P PS=5.3U PD=5.3U
M$162 VDD VDD VDD VDD pfet_03v3 L=2U W=2U AS=1.3P AD=1.3P PS=5.3U PD=5.3U
M$163 \$258 IN \$257 VDD pfet_03v3 L=2U W=2U AS=1.3P AD=1.3P PS=5.3U PD=5.3U
M$164 \$259 IN \$258 VDD pfet_03v3 L=2U W=2U AS=1.3P AD=0.84P PS=5.3U PD=2.84U
M$165 \$260 IN \$259 VDD pfet_03v3 L=2U W=2U AS=0.84P AD=0.84P PS=2.84U PD=2.84U
M$166 \$261 IN \$260 VDD pfet_03v3 L=2U W=2U AS=0.84P AD=1.3P PS=2.84U PD=5.3U
M$167 \$144 IN \$261 VDD pfet_03v3 L=2U W=2U AS=1.3P AD=1.3P PS=5.3U PD=5.3U
M$168 VDD VDD VDD VDD pfet_03v3 L=2U W=2U AS=1.3P AD=1.3P PS=5.3U PD=5.3U
M$169 VDD VDD VDD VDD pfet_03v3 L=2U W=2U AS=1.3P AD=1.3P PS=5.3U PD=5.3U
M$170 \$286 IN \$247 VDD pfet_03v3 L=2U W=2U AS=1.3P AD=1.3P PS=5.3U PD=5.3U
M$171 \$287 IN \$286 VDD pfet_03v3 L=2U W=2U AS=1.3P AD=0.84P PS=5.3U PD=2.84U
M$172 \$288 IN \$287 VDD pfet_03v3 L=2U W=2U AS=0.84P AD=0.84P PS=2.84U PD=2.84U
M$173 \$289 IN \$288 VDD pfet_03v3 L=2U W=2U AS=0.84P AD=1.3P PS=2.84U PD=5.3U
M$174 \$290 IN \$289 VDD pfet_03v3 L=2U W=2U AS=1.3P AD=1.3P PS=5.3U PD=5.3U
M$175 VDD VDD VDD VDD pfet_03v3 L=2U W=2U AS=1.3P AD=1.3P PS=5.3U PD=5.3U
M$176 VDD VDD VDD VDD pfet_03v3 L=2U W=2U AS=1.3P AD=1.3P PS=5.3U PD=5.3U
M$177 \$291 IN \$252 VDD pfet_03v3 L=2U W=2U AS=1.3P AD=1.3P PS=5.3U PD=5.3U
M$178 \$292 IN \$291 VDD pfet_03v3 L=2U W=2U AS=1.3P AD=0.84P PS=5.3U PD=2.84U
M$179 \$293 IN \$292 VDD pfet_03v3 L=2U W=2U AS=0.84P AD=0.84P PS=2.84U PD=2.84U
M$180 \$294 IN \$293 VDD pfet_03v3 L=2U W=2U AS=0.84P AD=1.3P PS=2.84U PD=5.3U
M$181 \$295 IN \$294 VDD pfet_03v3 L=2U W=2U AS=1.3P AD=1.3P PS=5.3U PD=5.3U
M$182 VDD VDD VDD VDD pfet_03v3 L=2U W=2U AS=1.3P AD=1.3P PS=5.3U PD=5.3U
M$183 VDD VDD VDD VDD pfet_03v3 L=2U W=2U AS=1.3P AD=1.3P PS=5.3U PD=5.3U
M$184 \$296 IN \$257 VDD pfet_03v3 L=2U W=2U AS=1.3P AD=1.3P PS=5.3U PD=5.3U
M$185 \$297 IN \$296 VDD pfet_03v3 L=2U W=2U AS=1.3P AD=0.84P PS=5.3U PD=2.84U
M$186 \$298 IN \$297 VDD pfet_03v3 L=2U W=2U AS=0.84P AD=0.84P PS=2.84U PD=2.84U
M$187 \$299 IN \$298 VDD pfet_03v3 L=2U W=2U AS=0.84P AD=1.3P PS=2.84U PD=5.3U
M$188 \$300 IN \$299 VDD pfet_03v3 L=2U W=2U AS=1.3P AD=1.3P PS=5.3U PD=5.3U
M$189 VDD VDD VDD VDD pfet_03v3 L=2U W=2U AS=1.3P AD=1.3P PS=5.3U PD=5.3U
M$190 VDD VDD VDD VDD pfet_03v3 L=2U W=2U AS=1.3P AD=1.3P PS=5.3U PD=5.3U
M$191 \$323 IN OUT7 VDD pfet_03v3 L=2U W=2U AS=1.3P AD=1.3P PS=5.3U PD=5.3U
M$192 \$324 IN \$323 VDD pfet_03v3 L=2U W=2U AS=1.3P AD=0.84P PS=5.3U PD=2.84U
M$193 \$325 IN \$324 VDD pfet_03v3 L=2U W=2U AS=0.84P AD=0.84P PS=2.84U PD=2.84U
M$194 \$326 IN \$325 VDD pfet_03v3 L=2U W=2U AS=0.84P AD=1.3P PS=2.84U PD=5.3U
M$195 \$290 IN \$326 VDD pfet_03v3 L=2U W=2U AS=1.3P AD=1.3P PS=5.3U PD=5.3U
M$196 VDD VDD VDD VDD pfet_03v3 L=2U W=2U AS=1.3P AD=1.3P PS=5.3U PD=5.3U
M$197 VDD VDD VDD VDD pfet_03v3 L=2U W=2U AS=1.3P AD=1.3P PS=5.3U PD=5.3U
M$198 \$328 IN OUT9 VDD pfet_03v3 L=2U W=2U AS=1.3P AD=1.3P PS=5.3U PD=5.3U
M$199 \$329 IN \$328 VDD pfet_03v3 L=2U W=2U AS=1.3P AD=0.84P PS=5.3U PD=2.84U
M$200 \$330 IN \$329 VDD pfet_03v3 L=2U W=2U AS=0.84P AD=0.84P PS=2.84U PD=2.84U
M$201 \$331 IN \$330 VDD pfet_03v3 L=2U W=2U AS=0.84P AD=1.3P PS=2.84U PD=5.3U
M$202 \$295 IN \$331 VDD pfet_03v3 L=2U W=2U AS=1.3P AD=1.3P PS=5.3U PD=5.3U
M$203 VDD VDD VDD VDD pfet_03v3 L=2U W=2U AS=1.3P AD=1.3P PS=5.3U PD=5.3U
M$204 VDD VDD VDD VDD pfet_03v3 L=2U W=2U AS=1.3P AD=1.3P PS=5.3U PD=5.3U
M$205 \$333 IN OUT11 VDD pfet_03v3 L=2U W=2U AS=1.3P AD=1.3P PS=5.3U PD=5.3U
M$206 \$334 IN \$333 VDD pfet_03v3 L=2U W=2U AS=1.3P AD=0.84P PS=5.3U PD=2.84U
M$207 \$335 IN \$334 VDD pfet_03v3 L=2U W=2U AS=0.84P AD=0.84P PS=2.84U PD=2.84U
M$208 \$336 IN \$335 VDD pfet_03v3 L=2U W=2U AS=0.84P AD=1.3P PS=2.84U PD=5.3U
M$209 \$300 IN \$336 VDD pfet_03v3 L=2U W=2U AS=1.3P AD=1.3P PS=5.3U PD=5.3U
M$210 VDD VDD VDD VDD pfet_03v3 L=2U W=2U AS=1.3P AD=1.3P PS=5.3U PD=5.3U
M$211 VDD VDD VDD VDD pfet_03v3 L=2U W=2U AS=1.3P AD=1.3P PS=5.3U PD=5.3U
M$212 \$361 IN \$214 VDD pfet_03v3 L=2U W=2U AS=1.3P AD=1.3P PS=5.3U PD=5.3U
M$213 \$362 IN \$361 VDD pfet_03v3 L=2U W=2U AS=1.3P AD=0.84P PS=5.3U PD=2.84U
M$214 \$363 IN \$362 VDD pfet_03v3 L=2U W=2U AS=0.84P AD=0.84P PS=2.84U PD=2.84U
M$215 \$364 IN \$363 VDD pfet_03v3 L=2U W=2U AS=0.84P AD=1.3P PS=2.84U PD=5.3U
M$216 \$215 IN \$364 VDD pfet_03v3 L=2U W=2U AS=1.3P AD=1.3P PS=5.3U PD=5.3U
M$217 VDD VDD VDD VDD pfet_03v3 L=2U W=2U AS=1.3P AD=1.3P PS=5.3U PD=5.3U
M$218 VDD VDD VDD VDD pfet_03v3 L=2U W=2U AS=1.3P AD=1.3P PS=5.3U PD=5.3U
M$219 \$365 IN \$216 VDD pfet_03v3 L=2U W=2U AS=1.3P AD=1.3P PS=5.3U PD=5.3U
M$220 \$366 IN \$365 VDD pfet_03v3 L=2U W=2U AS=1.3P AD=0.84P PS=5.3U PD=2.84U
M$221 \$367 IN \$366 VDD pfet_03v3 L=2U W=2U AS=0.84P AD=0.84P PS=2.84U PD=2.84U
M$222 \$368 IN \$367 VDD pfet_03v3 L=2U W=2U AS=0.84P AD=1.3P PS=2.84U PD=5.3U
M$223 \$217 IN \$368 VDD pfet_03v3 L=2U W=2U AS=1.3P AD=1.3P PS=5.3U PD=5.3U
M$224 VDD VDD VDD VDD pfet_03v3 L=2U W=2U AS=1.3P AD=1.3P PS=5.3U PD=5.3U
M$225 VDD VDD VDD VDD pfet_03v3 L=2U W=2U AS=1.3P AD=1.3P PS=5.3U PD=5.3U
M$226 \$369 IN \$218 VDD pfet_03v3 L=2U W=2U AS=1.3P AD=1.3P PS=5.3U PD=5.3U
M$227 \$370 IN \$369 VDD pfet_03v3 L=2U W=2U AS=1.3P AD=0.84P PS=5.3U PD=2.84U
M$228 \$371 IN \$370 VDD pfet_03v3 L=2U W=2U AS=0.84P AD=0.84P PS=2.84U PD=2.84U
M$229 \$372 IN \$371 VDD pfet_03v3 L=2U W=2U AS=0.84P AD=1.3P PS=2.84U PD=5.3U
M$230 \$219 IN \$372 VDD pfet_03v3 L=2U W=2U AS=1.3P AD=1.3P PS=5.3U PD=5.3U
M$231 VDD VDD VDD VDD pfet_03v3 L=2U W=2U AS=1.3P AD=1.3P PS=5.3U PD=5.3U
M$232 VDD VDD VDD VDD pfet_03v3 L=2U W=2U AS=1.3P AD=1.3P PS=5.3U PD=5.3U
M$233 VDD VDD VDD VDD pfet_03v3 L=2U W=2U AS=1.3P AD=1.3P PS=5.3U PD=5.3U
M$234 VDD VDD VDD VDD pfet_03v3 L=2U W=2U AS=1.3P AD=0.84P PS=5.3U PD=2.84U
M$235 VDD VDD VDD VDD pfet_03v3 L=2U W=2U AS=0.84P AD=0.84P PS=2.84U PD=2.84U
M$236 VDD VDD VDD VDD pfet_03v3 L=2U W=2U AS=0.84P AD=1.3P PS=2.84U PD=5.3U
M$237 VDD VDD VDD VDD pfet_03v3 L=2U W=2U AS=1.3P AD=1.3P PS=5.3U PD=5.3U
M$238 VDD VDD VDD VDD pfet_03v3 L=2U W=2U AS=1.3P AD=1.3P PS=5.3U PD=5.3U
M$239 VDD VDD VDD VDD pfet_03v3 L=2U W=2U AS=1.3P AD=1.3P PS=5.3U PD=5.3U
M$240 VDD VDD VDD VDD pfet_03v3 L=2U W=2U AS=1.3P AD=1.3P PS=5.3U PD=5.3U
M$241 VDD VDD VDD VDD pfet_03v3 L=2U W=2U AS=1.3P AD=0.84P PS=5.3U PD=2.84U
M$242 VDD VDD VDD VDD pfet_03v3 L=2U W=2U AS=0.84P AD=0.84P PS=2.84U PD=2.84U
M$243 VDD VDD VDD VDD pfet_03v3 L=2U W=2U AS=0.84P AD=1.3P PS=2.84U PD=5.3U
M$244 VDD VDD VDD VDD pfet_03v3 L=2U W=2U AS=1.3P AD=1.3P PS=5.3U PD=5.3U
M$245 VDD VDD VDD VDD pfet_03v3 L=2U W=2U AS=1.3P AD=1.3P PS=5.3U PD=5.3U
M$246 VDD VDD VDD VDD pfet_03v3 L=2U W=2U AS=1.3P AD=1.3P PS=5.3U PD=5.3U
M$247 VDD VDD VDD VDD pfet_03v3 L=2U W=2U AS=1.3P AD=1.3P PS=5.3U PD=5.3U
M$248 VDD VDD VDD VDD pfet_03v3 L=2U W=2U AS=1.3P AD=0.84P PS=5.3U PD=2.84U
M$249 VDD VDD VDD VDD pfet_03v3 L=2U W=2U AS=0.84P AD=0.84P PS=2.84U PD=2.84U
M$250 VDD VDD VDD VDD pfet_03v3 L=2U W=2U AS=0.84P AD=1.3P PS=2.84U PD=5.3U
M$251 VDD VDD VDD VDD pfet_03v3 L=2U W=2U AS=1.3P AD=1.3P PS=5.3U PD=5.3U
M$252 VDD VDD VDD VDD pfet_03v3 L=2U W=2U AS=1.3P AD=1.3P PS=5.3U PD=5.3U
M$253 VDD VDD VDD VDD pfet_03v3 L=2U W=2U AS=1.3P AD=1.3P PS=5.3U PD=5.3U
M$254 VDD VDD VDD VDD pfet_03v3 L=2U W=2U AS=1.3P AD=1.3P PS=5.3U PD=5.3U
M$255 VDD VDD VDD VDD pfet_03v3 L=2U W=2U AS=1.3P AD=0.84P PS=5.3U PD=2.84U
M$256 VDD VDD VDD VDD pfet_03v3 L=2U W=2U AS=0.84P AD=0.84P PS=2.84U PD=2.84U
M$257 VDD VDD VDD VDD pfet_03v3 L=2U W=2U AS=0.84P AD=1.3P PS=2.84U PD=5.3U
M$258 VDD VDD VDD VDD pfet_03v3 L=2U W=2U AS=1.3P AD=1.3P PS=5.3U PD=5.3U
M$259 VDD VDD VDD VDD pfet_03v3 L=2U W=2U AS=1.3P AD=1.3P PS=5.3U PD=5.3U
M$260 VDD VDD VDD VDD pfet_03v3 L=2U W=2U AS=1.3P AD=1.3P PS=5.3U PD=5.3U
M$261 VDD VDD VDD VDD pfet_03v3 L=2U W=2U AS=1.3P AD=1.3P PS=5.3U PD=5.3U
M$262 VDD VDD VDD VDD pfet_03v3 L=2U W=2U AS=1.3P AD=0.84P PS=5.3U PD=2.84U
M$263 VDD VDD VDD VDD pfet_03v3 L=2U W=2U AS=0.84P AD=0.84P PS=2.84U PD=2.84U
M$264 VDD VDD VDD VDD pfet_03v3 L=2U W=2U AS=0.84P AD=1.3P PS=2.84U PD=5.3U
M$265 VDD VDD VDD VDD pfet_03v3 L=2U W=2U AS=1.3P AD=1.3P PS=5.3U PD=5.3U
M$266 VDD VDD VDD VDD pfet_03v3 L=2U W=2U AS=1.3P AD=1.3P PS=5.3U PD=5.3U
M$267 VDD VDD VDD VDD pfet_03v3 L=2U W=2U AS=1.3P AD=1.3P PS=5.3U PD=5.3U
M$268 VDD VDD VDD VDD pfet_03v3 L=2U W=2U AS=1.3P AD=1.3P PS=5.3U PD=5.3U
M$269 VDD VDD VDD VDD pfet_03v3 L=2U W=2U AS=1.3P AD=0.84P PS=5.3U PD=2.84U
M$270 VDD VDD VDD VDD pfet_03v3 L=2U W=2U AS=0.84P AD=0.84P PS=2.84U PD=2.84U
M$271 VDD VDD VDD VDD pfet_03v3 L=2U W=2U AS=0.84P AD=1.3P PS=2.84U PD=5.3U
M$272 VDD VDD VDD VDD pfet_03v3 L=2U W=2U AS=1.3P AD=1.3P PS=5.3U PD=5.3U
M$273 VDD VDD VDD VDD pfet_03v3 L=2U W=2U AS=1.3P AD=1.3P PS=5.3U PD=5.3U
M$274 VDD VDD VDD VDD pfet_03v3 L=2U W=2U AS=1.3P AD=1.3P PS=5.3U PD=5.3U
M$275 \$436 IN \$435 VDD pfet_03v3 L=2U W=2U AS=1.3P AD=1.3P PS=5.3U PD=5.3U
M$276 \$437 IN \$436 VDD pfet_03v3 L=2U W=2U AS=1.3P AD=0.84P PS=5.3U PD=2.84U
M$277 \$438 IN \$437 VDD pfet_03v3 L=2U W=2U AS=0.84P AD=0.84P PS=2.84U PD=2.84U
M$278 \$439 IN \$438 VDD pfet_03v3 L=2U W=2U AS=0.84P AD=1.3P PS=2.84U PD=5.3U
M$279 VDD IN \$439 VDD pfet_03v3 L=2U W=2U AS=1.3P AD=1.3P PS=5.3U PD=5.3U
M$280 VDD VDD VDD VDD pfet_03v3 L=2U W=2U AS=1.3P AD=1.3P PS=5.3U PD=5.3U
M$281 VDD VDD VDD VDD pfet_03v3 L=2U W=2U AS=1.3P AD=1.3P PS=5.3U PD=5.3U
M$282 \$441 IN \$440 VDD pfet_03v3 L=2U W=2U AS=1.3P AD=1.3P PS=5.3U PD=5.3U
M$283 \$442 IN \$441 VDD pfet_03v3 L=2U W=2U AS=1.3P AD=0.84P PS=5.3U PD=2.84U
M$284 \$443 IN \$442 VDD pfet_03v3 L=2U W=2U AS=0.84P AD=0.84P PS=2.84U PD=2.84U
M$285 \$444 IN \$443 VDD pfet_03v3 L=2U W=2U AS=0.84P AD=1.3P PS=2.84U PD=5.3U
M$286 VDD IN \$444 VDD pfet_03v3 L=2U W=2U AS=1.3P AD=1.3P PS=5.3U PD=5.3U
M$287 VDD VDD VDD VDD pfet_03v3 L=2U W=2U AS=1.3P AD=1.3P PS=5.3U PD=5.3U
M$288 VDD VDD VDD VDD pfet_03v3 L=2U W=2U AS=1.3P AD=1.3P PS=5.3U PD=5.3U
M$289 \$446 IN \$445 VDD pfet_03v3 L=2U W=2U AS=1.3P AD=1.3P PS=5.3U PD=5.3U
M$290 \$447 IN \$446 VDD pfet_03v3 L=2U W=2U AS=1.3P AD=0.84P PS=5.3U PD=2.84U
M$291 \$448 IN \$447 VDD pfet_03v3 L=2U W=2U AS=0.84P AD=0.84P PS=2.84U PD=2.84U
M$292 \$449 IN \$448 VDD pfet_03v3 L=2U W=2U AS=0.84P AD=1.3P PS=2.84U PD=5.3U
M$293 VDD IN \$449 VDD pfet_03v3 L=2U W=2U AS=1.3P AD=1.3P PS=5.3U PD=5.3U
M$294 VDD VDD VDD VDD pfet_03v3 L=2U W=2U AS=1.3P AD=1.3P PS=5.3U PD=5.3U
M$295 VDD VDD VDD VDD pfet_03v3 L=2U W=2U AS=1.3P AD=1.3P PS=5.3U PD=5.3U
M$296 \$474 IN VDD VDD pfet_03v3 L=2U W=2U AS=1.3P AD=1.3P PS=5.3U PD=5.3U
M$297 \$475 IN \$474 VDD pfet_03v3 L=2U W=2U AS=1.3P AD=0.84P PS=5.3U PD=2.84U
M$298 \$476 IN \$475 VDD pfet_03v3 L=2U W=2U AS=0.84P AD=0.84P PS=2.84U PD=2.84U
M$299 \$477 IN \$476 VDD pfet_03v3 L=2U W=2U AS=0.84P AD=1.3P PS=2.84U PD=5.3U
M$300 \$478 IN \$477 VDD pfet_03v3 L=2U W=2U AS=1.3P AD=1.3P PS=5.3U PD=5.3U
M$301 VDD VDD VDD VDD pfet_03v3 L=2U W=2U AS=1.3P AD=1.3P PS=5.3U PD=5.3U
M$302 VDD VDD VDD VDD pfet_03v3 L=2U W=2U AS=1.3P AD=1.3P PS=5.3U PD=5.3U
M$303 \$479 IN VDD VDD pfet_03v3 L=2U W=2U AS=1.3P AD=1.3P PS=5.3U PD=5.3U
M$304 \$480 IN \$479 VDD pfet_03v3 L=2U W=2U AS=1.3P AD=0.84P PS=5.3U PD=2.84U
M$305 \$481 IN \$480 VDD pfet_03v3 L=2U W=2U AS=0.84P AD=0.84P PS=2.84U PD=2.84U
M$306 \$482 IN \$481 VDD pfet_03v3 L=2U W=2U AS=0.84P AD=1.3P PS=2.84U PD=5.3U
M$307 \$483 IN \$482 VDD pfet_03v3 L=2U W=2U AS=1.3P AD=1.3P PS=5.3U PD=5.3U
M$308 VDD VDD VDD VDD pfet_03v3 L=2U W=2U AS=1.3P AD=1.3P PS=5.3U PD=5.3U
M$309 VDD VDD VDD VDD pfet_03v3 L=2U W=2U AS=1.3P AD=1.3P PS=5.3U PD=5.3U
M$310 \$484 IN VDD VDD pfet_03v3 L=2U W=2U AS=1.3P AD=1.3P PS=5.3U PD=5.3U
M$311 \$485 IN \$484 VDD pfet_03v3 L=2U W=2U AS=1.3P AD=0.84P PS=5.3U PD=2.84U
M$312 \$486 IN \$485 VDD pfet_03v3 L=2U W=2U AS=0.84P AD=0.84P PS=2.84U PD=2.84U
M$313 \$487 IN \$486 VDD pfet_03v3 L=2U W=2U AS=0.84P AD=1.3P PS=2.84U PD=5.3U
M$314 \$488 IN \$487 VDD pfet_03v3 L=2U W=2U AS=1.3P AD=1.3P PS=5.3U PD=5.3U
M$315 VDD VDD VDD VDD pfet_03v3 L=2U W=2U AS=1.3P AD=1.3P PS=5.3U PD=5.3U
M$316 VDD VDD VDD VDD pfet_03v3 L=2U W=2U AS=1.3P AD=1.3P PS=5.3U PD=5.3U
M$317 \$511 IN \$510 VDD pfet_03v3 L=2U W=2U AS=1.3P AD=1.3P PS=5.3U PD=5.3U
M$318 \$512 IN \$511 VDD pfet_03v3 L=2U W=2U AS=1.3P AD=0.84P PS=5.3U PD=2.84U
M$319 \$513 IN \$512 VDD pfet_03v3 L=2U W=2U AS=0.84P AD=0.84P PS=2.84U PD=2.84U
M$320 \$514 IN \$513 VDD pfet_03v3 L=2U W=2U AS=0.84P AD=1.3P PS=2.84U PD=5.3U
M$321 \$478 IN \$514 VDD pfet_03v3 L=2U W=2U AS=1.3P AD=1.3P PS=5.3U PD=5.3U
M$322 VDD VDD VDD VDD pfet_03v3 L=2U W=2U AS=1.3P AD=1.3P PS=5.3U PD=5.3U
M$323 VDD VDD VDD VDD pfet_03v3 L=2U W=2U AS=1.3P AD=1.3P PS=5.3U PD=5.3U
M$324 \$516 IN \$515 VDD pfet_03v3 L=2U W=2U AS=1.3P AD=1.3P PS=5.3U PD=5.3U
M$325 \$517 IN \$516 VDD pfet_03v3 L=2U W=2U AS=1.3P AD=0.84P PS=5.3U PD=2.84U
M$326 \$518 IN \$517 VDD pfet_03v3 L=2U W=2U AS=0.84P AD=0.84P PS=2.84U PD=2.84U
M$327 \$519 IN \$518 VDD pfet_03v3 L=2U W=2U AS=0.84P AD=1.3P PS=2.84U PD=5.3U
M$328 \$483 IN \$519 VDD pfet_03v3 L=2U W=2U AS=1.3P AD=1.3P PS=5.3U PD=5.3U
M$329 VDD VDD VDD VDD pfet_03v3 L=2U W=2U AS=1.3P AD=1.3P PS=5.3U PD=5.3U
M$330 VDD VDD VDD VDD pfet_03v3 L=2U W=2U AS=1.3P AD=1.3P PS=5.3U PD=5.3U
M$331 \$521 IN \$520 VDD pfet_03v3 L=2U W=2U AS=1.3P AD=1.3P PS=5.3U PD=5.3U
M$332 \$522 IN \$521 VDD pfet_03v3 L=2U W=2U AS=1.3P AD=0.84P PS=5.3U PD=2.84U
M$333 \$523 IN \$522 VDD pfet_03v3 L=2U W=2U AS=0.84P AD=0.84P PS=2.84U PD=2.84U
M$334 \$524 IN \$523 VDD pfet_03v3 L=2U W=2U AS=0.84P AD=1.3P PS=2.84U PD=5.3U
M$335 \$488 IN \$524 VDD pfet_03v3 L=2U W=2U AS=1.3P AD=1.3P PS=5.3U PD=5.3U
M$336 VDD VDD VDD VDD pfet_03v3 L=2U W=2U AS=1.3P AD=1.3P PS=5.3U PD=5.3U
M$337 VDD VDD VDD VDD pfet_03v3 L=2U W=2U AS=1.3P AD=1.3P PS=5.3U PD=5.3U
M$338 \$543 IN \$510 VDD pfet_03v3 L=2U W=2U AS=1.3P AD=1.3P PS=5.3U PD=5.3U
M$339 \$544 IN \$543 VDD pfet_03v3 L=2U W=2U AS=1.3P AD=0.84P PS=5.3U PD=2.84U
M$340 \$545 IN \$544 VDD pfet_03v3 L=2U W=2U AS=0.84P AD=0.84P PS=2.84U PD=2.84U
M$341 \$546 IN \$545 VDD pfet_03v3 L=2U W=2U AS=0.84P AD=1.3P PS=2.84U PD=5.3U
M$342 \$547 IN \$546 VDD pfet_03v3 L=2U W=2U AS=1.3P AD=1.3P PS=5.3U PD=5.3U
M$343 VDD VDD VDD VDD pfet_03v3 L=2U W=2U AS=1.3P AD=1.3P PS=5.3U PD=5.3U
M$344 VDD VDD VDD VDD pfet_03v3 L=2U W=2U AS=1.3P AD=1.3P PS=5.3U PD=5.3U
M$345 \$548 IN \$515 VDD pfet_03v3 L=2U W=2U AS=1.3P AD=1.3P PS=5.3U PD=5.3U
M$346 \$549 IN \$548 VDD pfet_03v3 L=2U W=2U AS=1.3P AD=0.84P PS=5.3U PD=2.84U
M$347 \$550 IN \$549 VDD pfet_03v3 L=2U W=2U AS=0.84P AD=0.84P PS=2.84U PD=2.84U
M$348 \$551 IN \$550 VDD pfet_03v3 L=2U W=2U AS=0.84P AD=1.3P PS=2.84U PD=5.3U
M$349 \$552 IN \$551 VDD pfet_03v3 L=2U W=2U AS=1.3P AD=1.3P PS=5.3U PD=5.3U
M$350 VDD VDD VDD VDD pfet_03v3 L=2U W=2U AS=1.3P AD=1.3P PS=5.3U PD=5.3U
M$351 VDD VDD VDD VDD pfet_03v3 L=2U W=2U AS=1.3P AD=1.3P PS=5.3U PD=5.3U
M$352 \$553 IN \$520 VDD pfet_03v3 L=2U W=2U AS=1.3P AD=1.3P PS=5.3U PD=5.3U
M$353 \$554 IN \$553 VDD pfet_03v3 L=2U W=2U AS=1.3P AD=0.84P PS=5.3U PD=2.84U
M$354 \$555 IN \$554 VDD pfet_03v3 L=2U W=2U AS=0.84P AD=0.84P PS=2.84U PD=2.84U
M$355 \$556 IN \$555 VDD pfet_03v3 L=2U W=2U AS=0.84P AD=1.3P PS=2.84U PD=5.3U
M$356 \$557 IN \$556 VDD pfet_03v3 L=2U W=2U AS=1.3P AD=1.3P PS=5.3U PD=5.3U
M$357 VDD VDD VDD VDD pfet_03v3 L=2U W=2U AS=1.3P AD=1.3P PS=5.3U PD=5.3U
M$358 VDD VDD VDD VDD pfet_03v3 L=2U W=2U AS=1.3P AD=1.3P PS=5.3U PD=5.3U
M$359 \$585 IN \$435 VDD pfet_03v3 L=2U W=2U AS=1.3P AD=1.3P PS=5.3U PD=5.3U
M$360 IN IN VDD VDD pfet_03v3 L=2U W=2U AS=1.3P AD=0.84P PS=5.3U PD=2.84U
M$361 VDD IN IN VDD pfet_03v3 L=2U W=2U AS=0.84P AD=0.84P PS=2.84U PD=2.84U
M$362 IN IN VDD VDD pfet_03v3 L=2U W=2U AS=0.84P AD=1.3P PS=2.84U PD=5.3U
M$363 \$587 IN OUT2 VDD pfet_03v3 L=2U W=2U AS=1.3P AD=1.3P PS=5.3U PD=5.3U
M$364 VDD VDD VDD VDD pfet_03v3 L=2U W=2U AS=1.3P AD=1.3P PS=5.3U PD=5.3U
M$365 VDD VDD VDD VDD pfet_03v3 L=2U W=2U AS=1.3P AD=1.3P PS=5.3U PD=5.3U
M$366 \$588 IN \$440 VDD pfet_03v3 L=2U W=2U AS=1.3P AD=1.3P PS=5.3U PD=5.3U
M$367 IN IN VDD VDD pfet_03v3 L=2U W=2U AS=1.3P AD=0.84P PS=5.3U PD=2.84U
M$368 VDD IN IN VDD pfet_03v3 L=2U W=2U AS=0.84P AD=0.84P PS=2.84U PD=2.84U
M$369 IN IN VDD VDD pfet_03v3 L=2U W=2U AS=0.84P AD=1.3P PS=2.84U PD=5.3U
M$370 \$590 IN OUT4 VDD pfet_03v3 L=2U W=2U AS=1.3P AD=1.3P PS=5.3U PD=5.3U
M$371 VDD VDD VDD VDD pfet_03v3 L=2U W=2U AS=1.3P AD=1.3P PS=5.3U PD=5.3U
M$372 VDD VDD VDD VDD pfet_03v3 L=2U W=2U AS=1.3P AD=1.3P PS=5.3U PD=5.3U
M$373 \$591 IN \$445 VDD pfet_03v3 L=2U W=2U AS=1.3P AD=1.3P PS=5.3U PD=5.3U
M$374 IN IN VDD VDD pfet_03v3 L=2U W=2U AS=1.3P AD=0.84P PS=5.3U PD=2.84U
M$375 VDD IN IN VDD pfet_03v3 L=2U W=2U AS=0.84P AD=0.84P PS=2.84U PD=2.84U
M$376 IN IN VDD VDD pfet_03v3 L=2U W=2U AS=0.84P AD=1.3P PS=2.84U PD=5.3U
M$377 \$593 IN OUT6 VDD pfet_03v3 L=2U W=2U AS=1.3P AD=1.3P PS=5.3U PD=5.3U
M$378 VDD VDD VDD VDD pfet_03v3 L=2U W=2U AS=1.3P AD=1.3P PS=5.3U PD=5.3U
M$379 VDD VDD VDD VDD pfet_03v3 L=2U W=2U AS=1.3P AD=1.3P PS=5.3U PD=5.3U
M$380 \$585 IN \$627 VDD pfet_03v3 L=2U W=2U AS=1.3P AD=1.3P PS=5.3U PD=5.3U
M$381 VDD IN IN VDD pfet_03v3 L=2U W=2U AS=1.3P AD=0.84P PS=5.3U PD=2.84U
M$382 IN IN VDD VDD pfet_03v3 L=2U W=2U AS=0.84P AD=0.84P PS=2.84U PD=2.84U
M$383 VDD IN IN VDD pfet_03v3 L=2U W=2U AS=0.84P AD=1.3P PS=2.84U PD=5.3U
M$384 \$587 IN \$628 VDD pfet_03v3 L=2U W=2U AS=1.3P AD=1.3P PS=5.3U PD=5.3U
M$385 VDD VDD VDD VDD pfet_03v3 L=2U W=2U AS=1.3P AD=1.3P PS=5.3U PD=5.3U
M$386 VDD VDD VDD VDD pfet_03v3 L=2U W=2U AS=1.3P AD=1.3P PS=5.3U PD=5.3U
M$387 \$588 IN \$629 VDD pfet_03v3 L=2U W=2U AS=1.3P AD=1.3P PS=5.3U PD=5.3U
M$388 VDD IN IN VDD pfet_03v3 L=2U W=2U AS=1.3P AD=0.84P PS=5.3U PD=2.84U
M$389 IN IN VDD VDD pfet_03v3 L=2U W=2U AS=0.84P AD=0.84P PS=2.84U PD=2.84U
M$390 VDD IN IN VDD pfet_03v3 L=2U W=2U AS=0.84P AD=1.3P PS=2.84U PD=5.3U
M$391 \$590 IN \$630 VDD pfet_03v3 L=2U W=2U AS=1.3P AD=1.3P PS=5.3U PD=5.3U
M$392 VDD VDD VDD VDD pfet_03v3 L=2U W=2U AS=1.3P AD=1.3P PS=5.3U PD=5.3U