* NGSPICE file created from SAR_Asynchronous_Logic.ext - technology: gf180mcuD

.subckt SAR_Asynchronous_Logic VDDD VSSD Set CLK clks D_C Reset Q_R VCM VC
X0 a_10034_n314# a_2722_n82.t2 a_4950_n314.t0 VSSD.t17 nfet_03v3 ad=0.9516p pd=4.34u as=0.9516p ps=4.34u w=1.56u l=0.28u
X1 D_reset_FF_1.Q.t6 a_110_n80.t2 a_17052_n4460# VDDD.t43 pfet_03v3 ad=2.535p pd=9.1u as=2.535p ps=9.1u w=3.9u l=0.28u
X2 a_2722_n82.t1 a_1902_n82.t2 VDDD.t18 VDDD.t17 pfet_03v3 ad=2.535p pd=9.1u as=2.535p ps=9.1u w=3.9u l=0.28u
X3 a_10034_n314# a_1902_n82.t3 a_4950_n314.t1 VDDD.t19 pfet_03v3 ad=2.535p pd=9.1u as=2.535p ps=9.1u w=3.9u l=0.28u
X4 a_2790_n4422.t3 Set.t0 VSSD.t41 VSSD.t40 nfet_03v3 ad=0.9516p pd=4.34u as=0.9516p ps=4.34u w=1.56u l=0.28u
X5 a_1002_n80.t0 a_110_n80.t3 VSSD.t11 VSSD.t10 nfet_03v3 ad=0.9516p pd=4.34u as=0.9516p ps=4.34u w=1.56u l=0.28u
X6 a_10182_n3162# Reset.t0 a_8818_n4422.t2 VDDD.t47 pfet_03v3 ad=2.535p pd=9.1u as=2.535p ps=9.1u w=3.9u l=0.28u
X7 a_16854_1076.t1 a_1002_n80.t2 VDDD.t24 VDDD.t23 pfet_03v3 ad=2.535p pd=9.1u as=2.535p ps=9.1u w=3.9u l=1.1u
X8 a_4950_n314.t2 Set.t1 VSSD.t43 VSSD.t42 nfet_03v3 ad=0.9516p pd=4.34u as=0.9516p ps=4.34u w=1.56u l=0.28u
X9 a_2790_n4422.t2 a_2722_n4054.t2 a_2604_n3162.t2 VSSD.t22 nfet_03v3 ad=0.9516p pd=4.34u as=0.9516p ps=4.34u w=1.56u l=0.28u
X10 VSSD.t1 Q_R.t3 a_2790_n4422.t0 VSSD.t0 nfet_03v3 ad=0.9516p pd=4.34u as=0.9516p ps=4.34u w=1.56u l=0.28u
X11 a_5602_n3162# a_2604_n3162.t4 Q_R.t1 VDDD.t2 pfet_03v3 ad=2.535p pd=9.1u as=2.535p ps=9.1u w=3.9u l=0.28u
X12 a_6578_946# a_4950_n314.t5 VDDD.t39 VDDD.t38 pfet_03v3 ad=2.535p pd=9.1u as=2.535p ps=9.1u w=3.9u l=0.28u
X13 VSSD.t53 a_3966_n314.t4 a_4950_n314.t3 VSSD.t52 nfet_03v3 ad=0.9516p pd=4.34u as=0.9516p ps=4.34u w=1.56u l=0.28u
X14 a_1902_n82.t1 a_1002_n80.t3 VDDD.t51 VDDD.t50 pfet_03v3 ad=2.535p pd=9.1u as=2.535p ps=9.1u w=3.9u l=0.28u
X15 a_3966_n314.t0 a_1902_n82.t4 a_6578_n314.t0 VDDD.t9 pfet_03v3 ad=2.535p pd=9.1u as=2.535p ps=9.1u w=3.9u l=0.28u
X16 D_reset_FF_1.Q.t7 Reset.t1 VSSD.t55 VSSD.t54 nfet_03v3 ad=0.9516p pd=4.34u as=0.9516p ps=4.34u w=1.56u l=0.28u
X17 VDDD.t26 Reset.t2 a_5602_n3162# VDDD.t25 pfet_03v3 ad=2.535p pd=9.1u as=2.535p ps=9.1u w=3.9u l=0.28u
X18 a_110_n80.t0 CLK.t0 VDDD.t32 VDDD.t31 pfet_03v3 ad=2.535p pd=9.1u as=2.535p ps=9.1u w=3.9u l=0.28u
X19 VSSD.t24 Q_R.t4 D_reset_FF_0.nQ VSSD.t23 nfet_03v3 ad=0.9516p pd=4.34u as=0.9516p ps=4.34u w=1.56u l=0.28u
X20 a_2722_n82.t0 a_1902_n82.t5 VSSD.t19 VSSD.t18 nfet_03v3 ad=0.9516p pd=4.34u as=0.9516p ps=4.34u w=1.56u l=0.28u
X21 a_6578_n314.t4 a_4950_n314.t6 VSSD.t48 VSSD.t47 nfet_03v3 ad=0.9516p pd=4.34u as=0.9516p ps=4.34u w=1.56u l=0.28u
X22 VDDD.t49 a_7342_n4422.t5 a_10182_n3162# VDDD.t48 pfet_03v3 ad=2.535p pd=9.1u as=2.535p ps=9.1u w=3.9u l=0.28u
X23 D_reset_FF_1.Q.t8 a_1002_n80.t4 a_17052_n4460# VSSD.t62 nfet_03v3 ad=0.9516p pd=4.34u as=0.9516p ps=4.34u w=1.56u l=0.28u
X24 a_4950_n314.t4 a_3966_n314.t5 a_4950_946# VDDD.t46 pfet_03v3 ad=2.535p pd=9.1u as=2.535p ps=9.1u w=3.9u l=0.28u
X25 VCM.t0 a_1002_n80.t5 VC.t0 VDDD.t35 pfet_03v3 ad=2.535p pd=9.1u as=2.535p ps=9.1u w=3.9u l=0.28u
X26 a_17052_n4460# a_110_n80.t4 VSSD.t35 VSSD.t34 nfet_03v3 ad=0.9516p pd=4.34u as=0.9516p ps=4.34u w=1.56u l=1.1u
X27 a_4950_946# Set.t2 VDDD.t21 VDDD.t20 pfet_03v3 ad=2.535p pd=9.1u as=2.535p ps=9.1u w=3.9u l=0.28u
X28 a_12798_n314.t4 Set.t3 a_12798_946# VDDD.t22 pfet_03v3 ad=2.535p pd=9.1u as=2.535p ps=9.1u w=3.9u l=0.28u
X29 VSSD.t26 Reset.t3 a_6578_n314.t1 VSSD.t25 nfet_03v3 ad=0.9516p pd=4.34u as=0.9516p ps=4.34u w=1.56u l=0.28u
X30 a_8818_n4422.t1 Reset.t4 VSSD.t30 VSSD.t29 nfet_03v3 ad=0.9516p pd=4.34u as=0.9516p ps=4.34u w=1.56u l=0.28u
X31 VDDD.t16 Q_R.t5 D_reset_FF_0.nQ VDDD.t15 pfet_03v3 ad=2.535p pd=9.1u as=2.535p ps=9.1u w=3.9u l=0.28u
X32 a_3966_n314.t1 a_1902_n82.t6 D_C.t0 VSSD.t4 nfet_03v3 ad=0.9516p pd=4.34u as=0.9516p ps=4.34u w=1.56u l=0.28u
X33 VCM.t1 a_110_n80.t5 VC.t1 VSSD.t49 nfet_03v3 ad=0.9516p pd=4.34u as=0.9516p ps=4.34u w=1.56u l=0.28u
X34 a_11810_n3162# a_8632_n3162.t4 a_7342_n4422.t2 VDDD.t8 pfet_03v3 ad=2.535p pd=9.1u as=2.535p ps=9.1u w=3.9u l=0.28u
X35 Q_R.t2 a_2604_n3162.t5 VSSD.t9 VSSD.t8 nfet_03v3 ad=0.9516p pd=4.34u as=0.9516p ps=4.34u w=1.56u l=0.28u
X36 VSSD.t7 a_2722_n4054.t3 a_2722_n3300.t0 VSSD.t6 nfet_03v3 ad=0.9516p pd=4.34u as=0.9516p ps=4.34u w=1.56u l=0.28u
X37 VSSD.t21 clks.t0 a_2722_n4054.t0 VSSD.t20 nfet_03v3 ad=0.9516p pd=4.34u as=0.9516p ps=4.34u w=1.56u l=0.28u
X38 a_1902_n82.t0 a_1002_n80.t6 VSSD.t46 VSSD.t45 nfet_03v3 ad=0.9516p pd=4.34u as=0.9516p ps=4.34u w=1.56u l=0.28u
X39 a_7342_n4422.t3 a_2722_n4054.t4 a_2604_n3162.t3 VDDD.t1 pfet_03v3 ad=2.535p pd=9.1u as=2.535p ps=9.1u w=3.9u l=0.28u
X40 a_12798_n314.t2 D_reset_FF_1.Q.t9 VSSD.t61 VSSD.t60 nfet_03v3 ad=0.9516p pd=4.34u as=0.9516p ps=4.34u w=1.56u l=0.28u
X41 VDDD.t34 Set.t4 a_11810_n3162# VDDD.t33 pfet_03v3 ad=2.535p pd=9.1u as=2.535p ps=9.1u w=3.9u l=0.28u
X42 VSSD.t32 Reset.t5 Q_R.t0 VSSD.t31 nfet_03v3 ad=0.9516p pd=4.34u as=0.9516p ps=4.34u w=1.56u l=0.28u
X43 VSSD.t57 a_7342_n4422.t6 a_8818_n4422.t4 VSSD.t56 nfet_03v3 ad=0.9516p pd=4.34u as=0.9516p ps=4.34u w=1.56u l=0.28u
X44 a_110_n80.t1 CLK.t1 VSSD.t37 VSSD.t36 nfet_03v3 ad=0.9516p pd=4.34u as=0.9516p ps=4.34u w=1.56u l=0.28u
X45 VSSD.t39 Set.t5 a_12798_n314.t3 VSSD.t38 nfet_03v3 ad=0.9516p pd=4.34u as=0.9516p ps=4.34u w=1.56u l=0.28u
X46 VDDD.t28 a_2722_n4054.t5 a_2722_n3300.t1 VDDD.t27 pfet_03v3 ad=2.535p pd=9.1u as=2.535p ps=9.1u w=3.9u l=0.28u
X47 VDDD.t45 clks.t1 a_2722_n4054.t1 VDDD.t44 pfet_03v3 ad=2.535p pd=9.1u as=2.535p ps=9.1u w=3.9u l=0.28u
X48 VC.t3 a_16854_1076.t3 VDDD.t37 VDDD.t36 pfet_03v3 ad=2.535p pd=9.1u as=2.535p ps=9.1u w=3.9u l=1.1u
X49 a_12798_946# D_reset_FF_1.Q.t10 VDDD.t14 VDDD.t13 pfet_03v3 ad=2.535p pd=9.1u as=2.535p ps=9.1u w=3.9u l=0.28u
X50 a_10034_n314# a_2722_n82.t3 a_12798_n314.t1 VDDD.t7 pfet_03v3 ad=2.535p pd=9.1u as=2.535p ps=9.1u w=3.9u l=0.28u
X51 D_reset_FF_1.Q.t5 a_110_n80.t6 a_16854_1076.t2 VDDD.t42 pfet_03v3 ad=2.535p pd=9.1u as=2.535p ps=9.1u w=3.9u l=0.28u
X52 a_10034_n314# a_1902_n82.t7 a_12798_n314.t0 VSSD.t5 nfet_03v3 ad=0.9516p pd=4.34u as=0.9516p ps=4.34u w=1.56u l=0.28u
X53 VSSD.t51 a_17052_n4460# VC.t2 VSSD.t50 nfet_03v3 ad=0.9516p pd=4.34u as=0.9516p ps=4.34u w=1.56u l=1.1u
X54 a_3966_n314.t2 a_2722_n82.t4 D_C.t1 VDDD.t6 pfet_03v3 ad=2.535p pd=9.1u as=2.535p ps=9.1u w=3.9u l=0.28u
X55 a_8818_n4422.t3 a_2722_n4054.t6 a_8632_n3162.t2 VDDD.t29 pfet_03v3 ad=2.535p pd=9.1u as=2.535p ps=9.1u w=3.9u l=0.28u
X56 a_11158_946# Reset.t6 VDDD.t53 VDDD.t52 pfet_03v3 ad=2.535p pd=9.1u as=2.535p ps=9.1u w=3.9u l=0.28u
X57 D_reset_FF_1.Q.t1 a_10034_n314# a_11158_946# VDDD.t5 pfet_03v3 ad=2.535p pd=9.1u as=2.535p ps=9.1u w=3.9u l=0.28u
X58 a_7342_n4422.t1 a_2722_n3300.t2 a_2604_n3162.t1 VSSD.t13 nfet_03v3 ad=0.9516p pd=4.34u as=0.9516p ps=4.34u w=1.56u l=0.28u
X59 a_7342_n4422.t0 a_8632_n3162.t5 VSSD.t3 VSSD.t2 nfet_03v3 ad=0.9516p pd=4.34u as=0.9516p ps=4.34u w=1.56u l=0.28u
X60 D_reset_FF_1.nQ D_reset_FF_1.Q.t11 VDDD.t12 VDDD.t11 pfet_03v3 ad=2.535p pd=9.1u as=2.535p ps=9.1u w=3.9u l=0.28u
X61 D_reset_FF_1.Q.t4 a_1002_n80.t7 a_16854_1076.t0 VSSD.t44 nfet_03v3 ad=0.9516p pd=4.34u as=0.9516p ps=4.34u w=1.56u l=0.28u
X62 VSSD.t28 Set.t6 a_7342_n4422.t4 VSSD.t27 nfet_03v3 ad=0.9516p pd=4.34u as=0.9516p ps=4.34u w=1.56u l=0.28u
X63 a_3966_n314.t3 a_2722_n82.t5 a_6578_n314.t3 VSSD.t16 nfet_03v3 ad=0.9516p pd=4.34u as=0.9516p ps=4.34u w=1.56u l=0.28u
X64 D_reset_FF_1.Q.t2 a_2722_n3300.t3 a_8632_n3162.t1 VDDD.t10 pfet_03v3 ad=2.535p pd=9.1u as=2.535p ps=9.1u w=3.9u l=0.28u
X65 a_1002_n80.t1 a_110_n80.t7 VDDD.t41 VDDD.t40 pfet_03v3 ad=2.535p pd=9.1u as=2.535p ps=9.1u w=3.9u l=0.28u
X66 a_3962_n3162# Set.t7 a_2790_n4422.t4 VDDD.t30 pfet_03v3 ad=2.535p pd=9.1u as=2.535p ps=9.1u w=3.9u l=0.28u
X67 VDDD.t4 Q_R.t6 a_3962_n3162# VDDD.t3 pfet_03v3 ad=2.535p pd=9.1u as=2.535p ps=9.1u w=3.9u l=0.28u
X68 a_8818_n4422.t0 a_2722_n3300.t4 a_8632_n3162.t0 VSSD.t12 nfet_03v3 ad=0.9516p pd=4.34u as=0.9516p ps=4.34u w=1.56u l=0.28u
X69 D_reset_FF_1.nQ D_reset_FF_1.Q.t12 VSSD.t59 VSSD.t58 nfet_03v3 ad=0.9516p pd=4.34u as=0.9516p ps=4.34u w=1.56u l=0.28u
X70 a_2790_n4422.t1 a_2722_n3300.t5 a_2604_n3162.t0 VDDD.t0 pfet_03v3 ad=2.535p pd=9.1u as=2.535p ps=9.1u w=3.9u l=0.28u
X71 a_6578_n314.t2 Reset.t7 a_6578_946# VDDD.t54 pfet_03v3 ad=2.535p pd=9.1u as=2.535p ps=9.1u w=3.9u l=0.28u
X72 VSSD.t15 a_10034_n314# D_reset_FF_1.Q.t0 VSSD.t14 nfet_03v3 ad=0.9516p pd=4.34u as=0.9516p ps=4.34u w=1.56u l=0.28u
X73 D_reset_FF_1.Q.t3 a_2722_n4054.t7 a_8632_n3162.t3 VSSD.t33 nfet_03v3 ad=0.9516p pd=4.34u as=0.9516p ps=4.34u w=1.56u l=0.28u
R0 a_2722_n82.n0 a_2722_n82.t3 86.4194
R1 a_2722_n82.n2 a_2722_n82.t4 82.416
R2 a_2722_n82.n1 a_2722_n82.t5 51.8544
R3 a_2722_n82.n0 a_2722_n82.t2 51.8072
R4 a_2722_n82.n3 a_2722_n82.t0 6.28457
R5 a_2722_n82.n2 a_2722_n82.n1 4.1171
R6 a_2722_n82.n3 a_2722_n82.n2 2.66253
R7 a_2722_n82.t1 a_2722_n82.n3 2.21122
R8 a_2722_n82.n1 a_2722_n82.n0 1.3775
R9 a_4950_n314.n0 a_4950_n314.t5 74.8588
R10 a_4950_n314.n0 a_4950_n314.t6 44.2362
R11 a_4950_n314.n3 a_4950_n314.n0 14.5242
R12 a_4950_n314.n3 a_4950_n314.t0 11.0089
R13 a_4950_n314.n2 a_4950_n314.n1 5.39574
R14 a_4950_n314.n2 a_4950_n314.t4 4.91248
R15 a_4950_n314.t1 a_4950_n314.n3 4.12612
R16 a_4950_n314.n1 a_4950_n314.t3 3.7821
R17 a_4950_n314.n1 a_4950_n314.t2 3.77824
R18 a_4950_n314.n0 a_4950_n314.n2 1.83141
R19 VSSD.n123 VSSD.t49 1.50975e+06
R20 VSSD.t12 VSSD.t13 3202.27
R21 VSSD.t29 VSSD.t12 2959.28
R22 VSSD.t6 VSSD.t33 2756.53
R23 VSSD.t40 VSSD.t22 2542.72
R24 VSSD.t13 VSSD.t31 2438.58
R25 VSSD.t8 VSSD.t0 2221.63
R26 VSSD.t2 VSSD.t56 2195.59
R27 VSSD.t33 VSSD.t27 2134.85
R28 VSSD.n108 VSSD.n107 1997.21
R29 VSSD.t17 VSSD.t16 1839.34
R30 VSSD.n93 VSSD.t62 1753.46
R31 VSSD.t16 VSSD.t25 1699.77
R32 VSSD.t22 VSSD.n94 1681.08
R33 VSSD.t4 VSSD.t18 1568.87
R34 VSSD.n128 VSSD.t5 1547.62
R35 VSSD.t54 VSSD.t17 1400.69
R36 VSSD.t27 VSSD.t2 1336.45
R37 VSSD.t56 VSSD.t29 1336.45
R38 VSSD.t31 VSSD.t8 1336.45
R39 VSSD.t0 VSSD.t40 1336.45
R40 VSSD.n95 VSSD.t20 1293.65
R41 VSSD.t60 VSSD.t14 1276.07
R42 VSSD.t47 VSSD.t52 1261.12
R43 VSSD.t42 VSSD.t4 1226.23
R44 VSSD.t62 VSSD.n92 1148.63
R45 VSSD.t34 VSSD.n93 830.657
R46 VSSD.t34 VSSD.n108 830.657
R47 VSSD.n92 VSSD.t44 792.307
R48 VSSD.t38 VSSD.t60 767.639
R49 VSSD.t14 VSSD.t54 767.639
R50 VSSD.t25 VSSD.t47 767.639
R51 VSSD.t52 VSSD.t42 767.639
R52 VSSD.n125 VSSD.t23 671.788
R53 VSSD.n127 VSSD.t45 635.181
R54 VSSD.n128 VSSD.t38 605.636
R55 VSSD.n107 VSSD.t20 567.389
R56 VSSD.n95 VSSD.t6 567.389
R57 VSSD.n94 VSSD.t23 567.389
R58 VSSD.t49 VSSD.n122 532.357
R59 VSSD.n92 VSSD.t58 469.086
R60 VSSD.n124 VSSD.t36 376.625
R61 VSSD.n129 VSSD.n128 375.988
R62 VSSD.t18 VSSD.n127 319.63
R63 VSSD.n129 VSSD.t58 314.923
R64 VSSD.n125 VSSD.t10 279.243
R65 VSSD.t45 VSSD.n126 266.219
R66 VSSD.n92 VSSD.n91 212.031
R67 VSSD.n91 VSSD.t50 208.612
R68 VSSD.n122 VSSD.t50 208.612
R69 VSSD.n126 VSSD.n125 185.288
R70 VSSD.t10 VSSD.n124 146.661
R71 VSSD.t36 VSSD.n123 146.661
R72 VSSD.n112 VSSD.n89 62.7242
R73 VSSD.n113 VSSD.n89 62.7242
R74 VSSD.n113 VSSD.n88 62.7242
R75 VSSD.n112 VSSD.n88 62.7242
R76 VSSD.n90 VSSD.n28 62.7242
R77 VSSD.n90 VSSD.n29 62.7242
R78 VSSD.n121 VSSD.n29 62.7242
R79 VSSD.n121 VSSD.n28 62.7242
R80 VSSD.n217 VSSD.n11 4.5005
R81 VSSD.n217 VSSD.n216 4.5005
R82 VSSD.n192 VSSD.n6 4.5005
R83 VSSD.n216 VSSD.n6 4.5005
R84 VSSD.n193 VSSD.n192 4.5005
R85 VSSD.n197 VSSD.n193 4.5005
R86 VSSD.n199 VSSD.n193 4.5005
R87 VSSD.n196 VSSD.n193 4.5005
R88 VSSD.n214 VSSD.n193 4.5005
R89 VSSD.n195 VSSD.n193 4.5005
R90 VSSD.n193 VSSD.n11 4.5005
R91 VSSD.n216 VSSD.n193 4.5005
R92 VSSD.n192 VSSD.n189 4.5005
R93 VSSD.n197 VSSD.n189 4.5005
R94 VSSD.n199 VSSD.n189 4.5005
R95 VSSD.n196 VSSD.n189 4.5005
R96 VSSD.n214 VSSD.n189 4.5005
R97 VSSD.n195 VSSD.n189 4.5005
R98 VSSD.n216 VSSD.n189 4.5005
R99 VSSD.n215 VSSD.n197 4.5005
R100 VSSD.n215 VSSD.n199 4.5005
R101 VSSD.n215 VSSD.n196 4.5005
R102 VSSD.n215 VSSD.n214 4.5005
R103 VSSD.n215 VSSD.n195 4.5005
R104 VSSD.n215 VSSD.n11 4.5005
R105 VSSD.n216 VSSD.n215 4.5005
R106 VSSD.n173 VSSD.n169 4.5005
R107 VSSD.n173 VSSD.n17 4.5005
R108 VSSD.n173 VSSD.n18 4.5005
R109 VSSD.n173 VSSD.n16 4.5005
R110 VSSD.n173 VSSD.n19 4.5005
R111 VSSD.n173 VSSD.n15 4.5005
R112 VSSD.n173 VSSD.n14 4.5005
R113 VSSD.n173 VSSD.n13 4.5005
R114 VSSD.n171 VSSD.n169 4.5005
R115 VSSD.n171 VSSD.n17 4.5005
R116 VSSD.n171 VSSD.n18 4.5005
R117 VSSD.n171 VSSD.n16 4.5005
R118 VSSD.n171 VSSD.n19 4.5005
R119 VSSD.n171 VSSD.n15 4.5005
R120 VSSD.n171 VSSD.n14 4.5005
R121 VSSD.n187 VSSD.n17 4.5005
R122 VSSD.n187 VSSD.n18 4.5005
R123 VSSD.n187 VSSD.n16 4.5005
R124 VSSD.n187 VSSD.n19 4.5005
R125 VSSD.n187 VSSD.n15 4.5005
R126 VSSD.n187 VSSD.n20 4.5005
R127 VSSD.n187 VSSD.n14 4.5005
R128 VSSD.n187 VSSD.n21 4.5005
R129 VSSD.n187 VSSD.n13 4.5005
R130 VSSD.n68 VSSD.n59 4.5005
R131 VSSD.n84 VSSD.n59 4.5005
R132 VSSD.n65 VSSD.n58 4.5005
R133 VSSD.n74 VSSD.n58 4.5005
R134 VSSD.n84 VSSD.n58 4.5005
R135 VSSD.n84 VSSD.n60 4.5005
R136 VSSD.n67 VSSD.n60 4.5005
R137 VSSD.n77 VSSD.n60 4.5005
R138 VSSD.n82 VSSD.n60 4.5005
R139 VSSD.n80 VSSD.n68 4.5005
R140 VSSD.n80 VSSD.n74 4.5005
R141 VSSD.n80 VSSD.n67 4.5005
R142 VSSD.n80 VSSD.n77 4.5005
R143 VSSD.n82 VSSD.n80 4.5005
R144 VSSD.n80 VSSD.n65 4.5005
R145 VSSD.n84 VSSD.n83 4.5005
R146 VSSD.n83 VSSD.n71 4.5005
R147 VSSD.n83 VSSD.n68 4.5005
R148 VSSD.n83 VSSD.n74 4.5005
R149 VSSD.n83 VSSD.n67 4.5005
R150 VSSD.n83 VSSD.n77 4.5005
R151 VSSD.n83 VSSD.n66 4.5005
R152 VSSD.n83 VSSD.n82 4.5005
R153 VSSD.n83 VSSD.n65 4.5005
R154 VSSD.n54 VSSD.n27 4.5005
R155 VSSD.n48 VSSD.n27 4.5005
R156 VSSD.n48 VSSD.n35 4.5005
R157 VSSD.n48 VSSD.n40 4.5005
R158 VSSD.n56 VSSD.n48 4.5005
R159 VSSD.n45 VSSD.n27 4.5005
R160 VSSD.n45 VSSD.n37 4.5005
R161 VSSD.n45 VSSD.n40 4.5005
R162 VSSD.n42 VSSD.n27 4.5005
R163 VSSD.n42 VSSD.n36 4.5005
R164 VSSD.n42 VSSD.n35 4.5005
R165 VSSD.n42 VSSD.n37 4.5005
R166 VSSD.n42 VSSD.n40 4.5005
R167 VSSD.n42 VSSD.n33 4.5005
R168 VSSD.n56 VSSD.n42 4.5005
R169 VSSD.n57 VSSD.n27 4.5005
R170 VSSD.n57 VSSD.n36 4.5005
R171 VSSD.n57 VSSD.n35 4.5005
R172 VSSD.n57 VSSD.n37 4.5005
R173 VSSD.n57 VSSD.n34 4.5005
R174 VSSD.n57 VSSD.n40 4.5005
R175 VSSD.n57 VSSD.n33 4.5005
R176 VSSD.n57 VSSD.n56 4.5005
R177 VSSD.n102 VSSD.t28 3.96068
R178 VSSD.n98 VSSD.t57 3.96068
R179 VSSD.n134 VSSD.t61 3.96068
R180 VSSD.n138 VSSD.t55 3.96068
R181 VSSD.n142 VSSD.t48 3.96068
R182 VSSD.n146 VSSD.t43 3.96068
R183 VSSD.n229 VSSD.t32 3.96068
R184 VSSD.n225 VSSD.t1 3.96068
R185 VSSD.n101 VSSD.t3 3.92733
R186 VSSD.n97 VSSD.t30 3.92733
R187 VSSD.n133 VSSD.t39 3.92733
R188 VSSD.n137 VSSD.t15 3.92733
R189 VSSD.n141 VSSD.t26 3.92733
R190 VSSD.n145 VSSD.t53 3.92733
R191 VSSD.n228 VSSD.t9 3.92733
R192 VSSD.n224 VSSD.t41 3.92733
R193 VSSD.n1 VSSD.t24 3.76153
R194 VSSD.n130 VSSD.t59 3.76153
R195 VSSD.n24 VSSD.t11 3.76153
R196 VSSD.n23 VSSD.t37 3.76153
R197 VSSD.n26 VSSD.t19 3.76153
R198 VSSD.n25 VSSD.t46 3.76153
R199 VSSD.n106 VSSD.t21 3.76153
R200 VSSD.n96 VSSD.t7 3.76153
R201 VSSD.n109 VSSD.t35 3.71588
R202 VSSD.n119 VSSD.t51 3.71588
R203 VSSD.n130 VSSD.n129 3.46717
R204 VSSD.n127 VSSD.n26 3.46717
R205 VSSD.n126 VSSD.n25 3.46717
R206 VSSD.n124 VSSD.n24 3.46717
R207 VSSD.n123 VSSD.n23 3.46717
R208 VSSD.n107 VSSD.n106 3.46717
R209 VSSD.n96 VSSD.n95 3.46717
R210 VSSD.n94 VSSD.n1 3.46717
R211 VSSD.n103 VSSD.n100 2.8535
R212 VSSD.n99 VSSD.n0 2.8535
R213 VSSD.n135 VSSD.n132 2.8535
R214 VSSD.n139 VSSD.n136 2.8535
R215 VSSD.n143 VSSD.n140 2.8535
R216 VSSD.n147 VSSD.n144 2.8535
R217 VSSD.n230 VSSD.n227 2.8535
R218 VSSD.n226 VSSD.n223 2.8535
R219 VSSD.n54 VSSD.n53 2.29479
R220 VSSD.n53 VSSD.n48 2.2505
R221 VSSD.n191 VSSD.n12 2.24901
R222 VSSD.n12 VSSD.n7 2.24901
R223 VSSD.n186 VSSD.n169 2.24901
R224 VSSD.n180 VSSD.n13 2.24901
R225 VSSD.n174 VSSD.n21 2.24901
R226 VSSD.n172 VSSD.n20 2.24901
R227 VSSD.n71 VSSD.n70 2.24901
R228 VSSD.n79 VSSD.n66 2.24901
R229 VSSD.n51 VSSD.n36 2.24901
R230 VSSD.n46 VSSD.n33 2.24901
R231 VSSD.n43 VSSD.n34 2.24901
R232 VSSD.n219 VSSD.n218 2.24901
R233 VSSD.n219 VSSD.n5 2.24901
R234 VSSD.n63 VSSD.n62 2.24901
R235 VSSD.n63 VSSD.n61 2.24901
R236 VSSD.n54 VSSD.n50 2.2479
R237 VSSD.n54 VSSD.n49 2.2479
R238 VSSD.n55 VSSD.n54 2.2479
R239 VSSD.n48 VSSD.n47 2.2479
R240 VSSD.n45 VSSD.n44 2.2479
R241 VSSD.n78 VSSD.n59 2.24712
R242 VSSD.n75 VSSD.n59 2.24712
R243 VSSD.n72 VSSD.n59 2.24712
R244 VSSD.n81 VSSD.n58 2.24712
R245 VSSD.n76 VSSD.n58 2.24712
R246 VSSD.n69 VSSD.n58 2.24712
R247 VSSD.n73 VSSD.n60 2.24712
R248 VSSD.n64 VSSD.n60 2.24712
R249 VSSD.n80 VSSD.n31 2.24712
R250 VSSD.n217 VSSD.n10 2.24702
R251 VSSD.n217 VSSD.n9 2.24702
R252 VSSD.n217 VSSD.n8 2.24702
R253 VSSD.n198 VSSD.n6 2.24702
R254 VSSD.n200 VSSD.n6 2.24702
R255 VSSD.n194 VSSD.n6 2.24702
R256 VSSD.n189 VSSD.n188 2.24702
R257 VSSD.n185 VSSD.n184 2.24702
R258 VSSD.n185 VSSD.n183 2.24702
R259 VSSD.n185 VSSD.n182 2.24702
R260 VSSD.n185 VSSD.n181 2.24702
R261 VSSD.n179 VSSD.n178 2.24702
R262 VSSD.n179 VSSD.n177 2.24702
R263 VSSD.n179 VSSD.n176 2.24702
R264 VSSD.n179 VSSD.n175 2.24702
R265 VSSD.n171 VSSD.n170 2.24702
R266 VSSD.n215 VSSD.n4 2.24702
R267 VSSD.n39 VSSD.n38 2.04125
R268 VSSD.n45 VSSD.n41 1.49904
R269 VSSD.n52 VSSD.n32 1.17926
R270 VSSD.n30 VSSD.n28 1.0405
R271 VSSD.n28 VSSD.t50 1.0405
R272 VSSD.n121 VSSD.n120 1.0405
R273 VSSD.n122 VSSD.n121 1.0405
R274 VSSD.n90 VSSD.n85 1.0405
R275 VSSD.n91 VSSD.n90 1.0405
R276 VSSD.n117 VSSD.n29 1.0405
R277 VSSD.n29 VSSD.t50 1.0405
R278 VSSD.n112 VSSD.n111 1.0405
R279 VSSD.t34 VSSD.n112 1.0405
R280 VSSD.n88 VSSD.n86 1.0405
R281 VSSD.n93 VSSD.n88 1.0405
R282 VSSD.n110 VSSD.n89 1.0405
R283 VSSD.n108 VSSD.n89 1.0405
R284 VSSD.n114 VSSD.n113 1.0405
R285 VSSD.n113 VSSD.t34 1.0405
R286 VSSD.n216 VSSD.n190 0.90897
R287 VSSD.n155 VSSD.n13 0.908963
R288 VSSD.n221 VSSD.n220 0.9005
R289 VSSD.n3 VSSD.n2 0.9005
R290 VSSD.n203 VSSD.n202 0.9005
R291 VSSD.n205 VSSD.n204 0.9005
R292 VSSD.n206 VSSD.n201 0.9005
R293 VSSD.n213 VSSD.n207 0.9005
R294 VSSD.n212 VSSD.n208 0.9005
R295 VSSD.n211 VSSD.n209 0.9005
R296 VSSD.n220 VSSD.n219 0.9005
R297 VSSD.n192 VSSD.n3 0.9005
R298 VSSD.n203 VSSD.n197 0.9005
R299 VSSD.n204 VSSD.n199 0.9005
R300 VSSD.n201 VSSD.n196 0.9005
R301 VSSD.n214 VSSD.n213 0.9005
R302 VSSD.n212 VSSD.n195 0.9005
R303 VSSD.n211 VSSD.n11 0.9005
R304 VSSD.n210 VSSD.n12 0.9005
R305 VSSD.n169 VSSD.n168 0.9005
R306 VSSD.n22 VSSD.n17 0.9005
R307 VSSD.n164 VSSD.n18 0.9005
R308 VSSD.n163 VSSD.n16 0.9005
R309 VSSD.n162 VSSD.n19 0.9005
R310 VSSD.n153 VSSD.n15 0.9005
R311 VSSD.n158 VSSD.n20 0.9005
R312 VSSD.n157 VSSD.n14 0.9005
R313 VSSD.n156 VSSD.n21 0.9005
R314 VSSD.n168 VSSD.n167 0.9005
R315 VSSD.n157 VSSD.n154 0.9005
R316 VSSD.n159 VSSD.n158 0.9005
R317 VSSD.n160 VSSD.n153 0.9005
R318 VSSD.n162 VSSD.n161 0.9005
R319 VSSD.n163 VSSD.n152 0.9005
R320 VSSD.n165 VSSD.n164 0.9005
R321 VSSD.n166 VSSD.n22 0.9005
R322 VSSD.n111 VSSD.n86 0.806947
R323 VSSD.n85 VSSD.n30 0.806947
R324 VSSD.n111 VSSD.n110 0.721759
R325 VSSD.n120 VSSD.n30 0.721759
R326 VSSD.n131 VSSD.n27 0.643903
R327 VSSD.n222 VSSD.n221 0.610123
R328 VSSD.n140 VSSD.n139 0.565534
R329 VSSD.n209 VSSD.n190 0.466663
R330 VSSD.n155 VSSD.n154 0.464417
R331 VSSD.n231 VSSD.n230 0.400713
R332 VSSD.n115 VSSD.n86 0.373526
R333 VSSD.n116 VSSD.n85 0.373526
R334 VSSD.n148 VSSD.n147 0.360101
R335 VSSD.n104 VSSD.n103 0.359497
R336 VSSD.n116 VSSD.n115 0.321649
R337 VSSD.n167 VSSD.n151 0.276448
R338 VSSD.n132 VSSD.n131 0.265516
R339 VSSD.n223 VSSD.n222 0.265516
R340 VSSD.n189 VSSD.n187 0.235657
R341 VSSD.n58 VSSD.n57 0.216886
R342 VSSD.n105 VSSD.n87 0.172982
R343 VSSD.n231 VSSD.n0 0.166321
R344 VSSD.n142 VSSD.n141 0.154293
R345 VSSD.n146 VSSD.n145 0.154293
R346 VSSD.n134 VSSD.n133 0.154293
R347 VSSD.n138 VSSD.n137 0.154293
R348 VSSD.n229 VSSD.n228 0.154293
R349 VSSD.n225 VSSD.n224 0.154293
R350 VSSD.n102 VSSD.n101 0.154293
R351 VSSD.n98 VSSD.n97 0.154293
R352 VSSD.n118 VSSD.n84 0.117713
R353 VSSD.n150 VSSD.n24 0.105416
R354 VSSD.n151 VSSD.n23 0.105416
R355 VSSD.n148 VSSD.n26 0.105416
R356 VSSD.n149 VSSD.n25 0.105416
R357 VSSD.n106 VSSD.n105 0.105416
R358 VSSD.n104 VSSD.n96 0.105416
R359 VSSD.n131 VSSD.n130 0.105416
R360 VSSD.n222 VSSD.n1 0.105416
R361 VSSD.n150 VSSD.n149 0.101554
R362 VSSD.n151 VSSD.n150 0.1006
R363 VSSD.n109 VSSD.n87 0.0997857
R364 VSSD.n119 VSSD.n118 0.0997857
R365 VSSD.n149 VSSD.n148 0.09275
R366 VSSD.n105 VSSD.n104 0.09275
R367 VSSD.n117 VSSD.n116 0.0724214
R368 VSSD.n115 VSSD.n114 0.0694121
R369 VSSD.n136 VSSD.n135 0.0653276
R370 VSSD.n227 VSSD.n226 0.0653276
R371 VSSD.n144 VSSD.n143 0.0632586
R372 VSSD.n100 VSSD.n99 0.0632586
R373 VSSD.n118 VSSD.n117 0.0551288
R374 VSSD.n114 VSSD.n87 0.0528431
R375 VSSD.n53 VSSD.n52 0.0447857
R376 VSSD.n143 VSSD.n142 0.0356724
R377 VSSD.n147 VSSD.n146 0.0356724
R378 VSSD.n135 VSSD.n134 0.0356724
R379 VSSD.n139 VSSD.n138 0.0356724
R380 VSSD.n230 VSSD.n229 0.0356724
R381 VSSD.n226 VSSD.n225 0.0356724
R382 VSSD.n103 VSSD.n102 0.0356724
R383 VSSD.n99 VSSD.n98 0.0356724
R384 VSSD.n141 VSSD.n140 0.0294655
R385 VSSD.n145 VSSD.n144 0.0294655
R386 VSSD.n133 VSSD.n132 0.0294655
R387 VSSD.n137 VSSD.n136 0.0294655
R388 VSSD.n228 VSSD.n227 0.0294655
R389 VSSD.n224 VSSD.n223 0.0294655
R390 VSSD.n101 VSSD.n100 0.0294655
R391 VSSD.n97 VSSD.n0 0.0294655
R392 VSSD.n220 VSSD.n3 0.0164429
R393 VSSD.n203 VSSD.n3 0.0164429
R394 VSSD.n204 VSSD.n203 0.0164429
R395 VSSD.n204 VSSD.n201 0.0164429
R396 VSSD.n213 VSSD.n201 0.0164429
R397 VSSD.n213 VSSD.n212 0.0164429
R398 VSSD.n212 VSSD.n211 0.0164429
R399 VSSD.n211 VSSD.n210 0.0164429
R400 VSSD.n216 VSSD.n12 0.0164429
R401 VSSD.n168 VSSD.n22 0.0164429
R402 VSSD.n164 VSSD.n22 0.0164429
R403 VSSD.n164 VSSD.n163 0.0164429
R404 VSSD.n163 VSSD.n162 0.0164429
R405 VSSD.n162 VSSD.n153 0.0164429
R406 VSSD.n158 VSSD.n153 0.0164429
R407 VSSD.n158 VSSD.n157 0.0164429
R408 VSSD.n157 VSSD.n156 0.0164429
R409 VSSD.n221 VSSD.n2 0.0162183
R410 VSSD.n202 VSSD.n2 0.0162183
R411 VSSD.n205 VSSD.n202 0.0162183
R412 VSSD.n206 VSSD.n205 0.0162183
R413 VSSD.n207 VSSD.n206 0.0162183
R414 VSSD.n208 VSSD.n207 0.0162183
R415 VSSD.n209 VSSD.n208 0.0162183
R416 VSSD.n167 VSSD.n166 0.0144152
R417 VSSD.n166 VSSD.n165 0.0144152
R418 VSSD.n165 VSSD.n152 0.0144152
R419 VSSD.n161 VSSD.n152 0.0144152
R420 VSSD.n161 VSSD.n160 0.0144152
R421 VSSD.n160 VSSD.n159 0.0144152
R422 VSSD.n159 VSSD.n154 0.0144152
R423 VSSD.n110 VSSD.n109 0.0137143
R424 VSSD.n120 VSSD.n119 0.0137143
R425 VSSD.n40 VSSD.n39 0.0111236
R426 VSSD.n197 VSSD.n10 0.00895733
R427 VSSD.n198 VSSD.n197 0.00895733
R428 VSSD.n196 VSSD.n9 0.00895733
R429 VSSD.n200 VSSD.n196 0.00895733
R430 VSSD.n195 VSSD.n8 0.00895733
R431 VSSD.n195 VSSD.n194 0.00895733
R432 VSSD.n188 VSSD.n12 0.00895733
R433 VSSD.n192 VSSD.n10 0.00895733
R434 VSSD.n199 VSSD.n9 0.00895733
R435 VSSD.n214 VSSD.n8 0.00895733
R436 VSSD.n199 VSSD.n198 0.00895733
R437 VSSD.n214 VSSD.n200 0.00895733
R438 VSSD.n194 VSSD.n11 0.00895733
R439 VSSD.n188 VSSD.n11 0.00895733
R440 VSSD.n178 VSSD.n169 0.00895733
R441 VSSD.n184 VSSD.n18 0.00895733
R442 VSSD.n177 VSSD.n18 0.00895733
R443 VSSD.n183 VSSD.n19 0.00895733
R444 VSSD.n176 VSSD.n19 0.00895733
R445 VSSD.n182 VSSD.n20 0.00895733
R446 VSSD.n175 VSSD.n20 0.00895733
R447 VSSD.n181 VSSD.n21 0.00895733
R448 VSSD.n170 VSSD.n21 0.00895733
R449 VSSD.n184 VSSD.n17 0.00895733
R450 VSSD.n183 VSSD.n16 0.00895733
R451 VSSD.n182 VSSD.n15 0.00895733
R452 VSSD.n181 VSSD.n14 0.00895733
R453 VSSD.n178 VSSD.n17 0.00895733
R454 VSSD.n177 VSSD.n16 0.00895733
R455 VSSD.n176 VSSD.n15 0.00895733
R456 VSSD.n175 VSSD.n14 0.00895733
R457 VSSD.n170 VSSD.n13 0.00895733
R458 VSSD.n192 VSSD.n4 0.00895733
R459 VSSD.n219 VSSD.n4 0.00895733
R460 VSSD.n156 VSSD.n155 0.00884136
R461 VSSD.n210 VSSD.n190 0.00883364
R462 VSSD.n65 VSSD.n64 0.00875819
R463 VSSD.n82 VSSD.n78 0.00875819
R464 VSSD.n82 VSSD.n81 0.00875819
R465 VSSD.n77 VSSD.n75 0.00875819
R466 VSSD.n77 VSSD.n76 0.00875819
R467 VSSD.n74 VSSD.n72 0.00875819
R468 VSSD.n73 VSSD.n68 0.00875819
R469 VSSD.n71 VSSD.n69 0.00875819
R470 VSSD.n84 VSSD.n31 0.00875819
R471 VSSD.n78 VSSD.n65 0.00875819
R472 VSSD.n75 VSSD.n66 0.00875819
R473 VSSD.n72 VSSD.n67 0.00875819
R474 VSSD.n81 VSSD.n66 0.00875819
R475 VSSD.n76 VSSD.n67 0.00875819
R476 VSSD.n69 VSSD.n68 0.00875819
R477 VSSD.n74 VSSD.n73 0.00875819
R478 VSSD.n64 VSSD.n63 0.00875819
R479 VSSD.n71 VSSD.n31 0.00875819
R480 VSSD.n38 VSSD.n27 0.00851782
R481 VSSD.n56 VSSD.n55 0.00720524
R482 VSSD.n49 VSSD.n40 0.00720524
R483 VSSD.n47 VSSD.n34 0.00720524
R484 VSSD.n50 VSSD.n37 0.00720524
R485 VSSD.n44 VSSD.n35 0.00720524
R486 VSSD.n50 VSSD.n35 0.00720524
R487 VSSD.n49 VSSD.n34 0.00720524
R488 VSSD.n55 VSSD.n33 0.00720524
R489 VSSD.n47 VSSD.n37 0.00720524
R490 VSSD.n44 VSSD.n36 0.00720524
R491 VSSD.n56 VSSD.n41 0.00687206
R492 VSSD.n57 VSSD.n32 0.00501751
R493 VSSD.n173 VSSD.n172 0.00498219
R494 VSSD.n179 VSSD.n174 0.00498219
R495 VSSD.n185 VSSD.n180 0.00498219
R496 VSSD.n186 VSSD.n185 0.00498219
R497 VSSD.n189 VSSD.n5 0.00498219
R498 VSSD.n191 VSSD.n6 0.00498219
R499 VSSD.n218 VSSD.n6 0.00498219
R500 VSSD.n215 VSSD.n7 0.00498219
R501 VSSD.n218 VSSD.n217 0.00498219
R502 VSSD.n217 VSSD.n7 0.00498219
R503 VSSD.n193 VSSD.n5 0.00498219
R504 VSSD.n193 VSSD.n191 0.00498219
R505 VSSD.n180 VSSD.n179 0.00498219
R506 VSSD.n174 VSSD.n173 0.00498219
R507 VSSD.n172 VSSD.n171 0.00498219
R508 VSSD.n187 VSSD.n186 0.00498219
R509 VSSD.n51 VSSD.n48 0.00498219
R510 VSSD.n46 VSSD.n45 0.00498219
R511 VSSD.n43 VSSD.n42 0.00498219
R512 VSSD.n62 VSSD.n58 0.00498219
R513 VSSD.n70 VSSD.n60 0.00498219
R514 VSSD.n80 VSSD.n79 0.00498219
R515 VSSD.n83 VSSD.n61 0.00498219
R516 VSSD.n62 VSSD.n59 0.00498219
R517 VSSD.n70 VSSD.n59 0.00498219
R518 VSSD.n79 VSSD.n60 0.00498219
R519 VSSD.n80 VSSD.n61 0.00498219
R520 VSSD.n54 VSSD.n51 0.00498219
R521 VSSD.n48 VSSD.n46 0.00498219
R522 VSSD.n45 VSSD.n43 0.00498219
R523 VSSD.n42 VSSD.n32 0.00493996
R524 VSSD.n38 VSSD.n36 0.0049098
R525 VSSD.n52 VSSD.n41 0.00393603
R526 VSSD VSSD.n231 0.00239638
R527 VSSD.n39 VSSD.n33 0.00230401
R528 a_110_n80.n3 a_110_n80.t6 81.0083
R529 a_110_n80.n3 a_110_n80.t2 80.9469
R530 a_110_n80.n2 a_110_n80.t7 70.3153
R531 a_110_n80.n0 a_110_n80.t5 54.8886
R532 a_110_n80.n2 a_110_n80.t3 39.854
R533 a_110_n80.n0 a_110_n80.t4 16.7884
R534 a_110_n80.n1 a_110_n80.n0 9.8148
R535 a_110_n80.n1 a_110_n80.t1 5.96645
R536 a_110_n80.n1 a_110_n80.n2 2.69789
R537 a_110_n80.t0 a_110_n80.n1 2.52942
R538 a_110_n80.n0 a_110_n80.n3 1.30877
R539 D_reset_FF_1.Q.n7 D_reset_FF_1.Q.t10 74.8588
R540 D_reset_FF_1.Q.n8 D_reset_FF_1.Q.t11 70.3153
R541 D_reset_FF_1.Q.n7 D_reset_FF_1.Q.t9 44.2362
R542 D_reset_FF_1.Q.n8 D_reset_FF_1.Q.t12 39.854
R543 D_reset_FF_1.Q.n9 D_reset_FF_1.Q.n0 11.62
R544 D_reset_FF_1.Q.n2 D_reset_FF_1.Q.t8 11.0112
R545 D_reset_FF_1.Q.n3 D_reset_FF_1.Q.t4 11.0112
R546 D_reset_FF_1.Q.n1 D_reset_FF_1.Q.t3 11.0083
R547 D_reset_FF_1.Q.n5 D_reset_FF_1.Q.n1 9.49928
R548 D_reset_FF_1.Q.n4 D_reset_FF_1.Q.n2 7.28497
R549 D_reset_FF_1.Q.n4 D_reset_FF_1.Q.n3 6.65722
R550 D_reset_FF_1.Q.n5 D_reset_FF_1.Q.n4 5.53329
R551 D_reset_FF_1.Q.n0 D_reset_FF_1.Q.n6 5.39574
R552 D_reset_FF_1.Q.n0 D_reset_FF_1.Q.t1 4.91248
R553 D_reset_FF_1.Q D_reset_FF_1.Q.n5 4.59604
R554 D_reset_FF_1.Q.n2 D_reset_FF_1.Q.t6 4.12461
R555 D_reset_FF_1.Q.n3 D_reset_FF_1.Q.t5 4.12461
R556 D_reset_FF_1.Q.n1 D_reset_FF_1.Q.t2 4.12408
R557 D_reset_FF_1.Q.n6 D_reset_FF_1.Q.t0 3.7821
R558 D_reset_FF_1.Q.n6 D_reset_FF_1.Q.t7 3.77824
R559 D_reset_FF_1.Q.n0 D_reset_FF_1.Q.n7 3.04286
R560 D_reset_FF_1.Q D_reset_FF_1.Q.n9 2.86313
R561 D_reset_FF_1.Q.n9 D_reset_FF_1.Q.n8 2.84345
R562 VDDD.n199 VDDD.n2 7227.76
R563 VDDD.n201 VDDD.n199 1754.49
R564 VDDD.n46 VDDD.t43 1567.5
R565 VDDD.t1 VDDD.t29 984
R566 VDDD.t19 VDDD.t9 984
R567 VDDD.t29 VDDD.t47 909.333
R568 VDDD.t9 VDDD.t54 909.333
R569 VDDD.t10 VDDD.t27 825.381
R570 VDDD.t0 VDDD.t30 781.333
R571 VDDD.t7 VDDD.t22 781.333
R572 VDDD.t25 VDDD.t1 749.333
R573 VDDD.t52 VDDD.t19 749.333
R574 VDDD.n2 VDDD.t17 725.254
R575 VDDD.t3 VDDD.t2 682.668
R576 VDDD.t13 VDDD.t5 682.668
R577 VDDD.n69 VDDD.t35 680.673
R578 VDDD.t48 VDDD.t8 674.668
R579 VDDD.t38 VDDD.t46 674.668
R580 VDDD.t33 VDDD.t10 656
R581 VDDD.t20 VDDD.t6 656
R582 VDDD.n179 VDDD.t0 611.111
R583 VDDD.t42 VDDD.n89 593.138
R584 VDDD.n90 VDDD.t42 584.034
R585 VDDD.n72 VDDD.t23 551.26
R586 VDDD.n73 VDDD.n71 541.26
R587 VDDD.n202 VDDD.t50 532.197
R588 VDDD.n76 VDDD.t7 505.334
R589 VDDD.t11 VDDD.n71 478.115
R590 VDDD.t8 VDDD.t33 410.668
R591 VDDD.t47 VDDD.t48 410.668
R592 VDDD.t2 VDDD.t25 410.668
R593 VDDD.t30 VDDD.t3 410.668
R594 VDDD.t22 VDDD.t13 410.668
R595 VDDD.t5 VDDD.t52 410.668
R596 VDDD.t54 VDDD.t38 410.668
R597 VDDD.t46 VDDD.t20 410.668
R598 VDDD.n198 VDDD.t31 405.372
R599 VDDD.n178 VDDD.t44 367.801
R600 VDDD.t6 VDDD.n2 326.668
R601 VDDD.t36 VDDD.n69 261.906
R602 VDDD.t36 VDDD.n90 261.906
R603 VDDD.n179 VDDD.t15 260.606
R604 VDDD.n202 VDDD.t17 244.319
R605 VDDD.t50 VDDD.n201 244.319
R606 VDDD.n199 VDDD.t40 189.258
R607 VDDD.n76 VDDD.t11 172
R608 VDDD.n46 VDDD.t44 168.849
R609 VDDD.t27 VDDD.n178 168.849
R610 VDDD.n3 VDDD.t31 166.762
R611 VDDD.t40 VDDD.n198 164.963
R612 VDDD.n87 VDDD.n72 76.5952
R613 VDDD.n72 VDDD.n70 76.5952
R614 VDDD.n73 VDDD.n70 76.5952
R615 VDDD.n87 VDDD.n73 76.5952
R616 VDDD.n95 VDDD.n68 76.5952
R617 VDDD.n94 VDDD.n68 76.5952
R618 VDDD.n94 VDDD.n67 76.5952
R619 VDDD.n95 VDDD.n67 76.5952
R620 VDDD.n88 VDDD.n71 48.0005
R621 VDDD.n89 VDDD.t23 36.0005
R622 VDDD.n192 VDDD.n10 4.5005
R623 VDDD.n192 VDDD.n11 4.5005
R624 VDDD.n192 VDDD.n191 4.5005
R625 VDDD.n23 VDDD.n15 4.5005
R626 VDDD.n191 VDDD.n15 4.5005
R627 VDDD.n190 VDDD.n6 4.5005
R628 VDDD.n190 VDDD.n20 4.5005
R629 VDDD.n190 VDDD.n189 4.5005
R630 VDDD.n190 VDDD.n19 4.5005
R631 VDDD.n190 VDDD.n11 4.5005
R632 VDDD.n191 VDDD.n190 4.5005
R633 VDDD.n191 VDDD.n13 4.5005
R634 VDDD.n13 VDDD.n11 4.5005
R635 VDDD.n19 VDDD.n13 4.5005
R636 VDDD.n189 VDDD.n13 4.5005
R637 VDDD.n20 VDDD.n13 4.5005
R638 VDDD.n23 VDDD.n13 4.5005
R639 VDDD.n13 VDDD.n10 4.5005
R640 VDDD.n13 VDDD.n6 4.5005
R641 VDDD.n188 VDDD.n11 4.5005
R642 VDDD.n188 VDDD.n19 4.5005
R643 VDDD.n189 VDDD.n188 4.5005
R644 VDDD.n188 VDDD.n20 4.5005
R645 VDDD.n188 VDDD.n23 4.5005
R646 VDDD.n188 VDDD.n10 4.5005
R647 VDDD.n188 VDDD.n6 4.5005