** sch_path: /home/gmaranhao/Desktop/Bracolin/Voltage_Reference/LDO/TopLevelLDO.sch
.subckt TopLevelLDO AVDD ibias vref Vout
*.PININFO Vout:B AVDD:B ibias:B vref:B
x1 iref AVDD vg vin Vout vfb StandardLDO
x2 AVDD iref_un vin vfb vg UndervoltageProtection
x3 Vout vg vin vfb AVDD ibias overvoltageProtection
M3 iref_un iref_un AVDD AVDD pfet_03v3 L=2u W=2u nf=1 m=1
x4 vref vin vin iref_diff AVDD GND FoldedCascode
x5 ibias iref_un iref_diff iref CM_block
.ends

* expanding   symbol:  LDO/StandardLDO.sym # of pins=6
** sym_path: /home/gmaranhao/Desktop/Bracolin/Voltage_Reference/LDO/StandardLDO.sym
** sch_path: /home/gmaranhao/Desktop/Bracolin/Voltage_Reference/LDO/StandardLDO.sch
.subckt StandardLDO ibias AVDD vg Vin Vout vref_off
*.PININFO Vout:B AVDD:B ibias:B Vin:B vg:B vref_off:B
M1[1] Vout vg AVDD AVDD pfet_03v3 L=1u W=16u nf=1 m=1
M1[2] Vout vg AVDD AVDD pfet_03v3 L=1u W=16u nf=1 m=1
M1[3] Vout vg AVDD AVDD pfet_03v3 L=1u W=16u nf=1 m=1
M1[4] Vout vg AVDD AVDD pfet_03v3 L=1u W=16u nf=1 m=1
M1[5] Vout vg AVDD AVDD pfet_03v3 L=1u W=16u nf=1 m=1
M1[6] Vout vg AVDD AVDD pfet_03v3 L=1u W=16u nf=1 m=1
M1[7] Vout vg AVDD AVDD pfet_03v3 L=1u W=16u nf=1 m=1
M1[8] Vout vg AVDD AVDD pfet_03v3 L=1u W=16u nf=1 m=1
M1[9] Vout vg AVDD AVDD pfet_03v3 L=1u W=16u nf=1 m=1
M1[10] Vout vg AVDD AVDD pfet_03v3 L=1u W=16u nf=1 m=1
M1[11] Vout vg AVDD AVDD pfet_03v3 L=1u W=16u nf=1 m=1
M1[12] Vout vg AVDD AVDD pfet_03v3 L=1u W=16u nf=1 m=1
M1[13] Vout vg AVDD AVDD pfet_03v3 L=1u W=16u nf=1 m=1
M1[14] Vout vg AVDD AVDD pfet_03v3 L=1u W=16u nf=1 m=1
M1[15] Vout vg AVDD AVDD pfet_03v3 L=1u W=16u nf=1 m=1
M1[16] Vout vg AVDD AVDD pfet_03v3 L=1u W=16u nf=1 m=1
M1[17] Vout vg AVDD AVDD pfet_03v3 L=1u W=16u nf=1 m=1
M1[18] Vout vg AVDD AVDD pfet_03v3 L=1u W=16u nf=1 m=1
M1[19] Vout vg AVDD AVDD pfet_03v3 L=1u W=16u nf=1 m=1
M1[20] Vout vg AVDD AVDD pfet_03v3 L=1u W=16u nf=1 m=1
M1[21] Vout vg AVDD AVDD pfet_03v3 L=1u W=16u nf=1 m=1
M1[22] Vout vg AVDD AVDD pfet_03v3 L=1u W=16u nf=1 m=1
M1[23] Vout vg AVDD AVDD pfet_03v3 L=1u W=16u nf=1 m=1
M1[24] Vout vg AVDD AVDD pfet_03v3 L=1u W=16u nf=1 m=1
M1[25] Vout vg AVDD AVDD pfet_03v3 L=1u W=16u nf=1 m=1
M1[26] Vout vg AVDD AVDD pfet_03v3 L=1u W=16u nf=1 m=1
M1[27] Vout vg AVDD AVDD pfet_03v3 L=1u W=16u nf=1 m=1
M1[28] Vout vg AVDD AVDD pfet_03v3 L=1u W=16u nf=1 m=1
M1[29] Vout vg AVDD AVDD pfet_03v3 L=1u W=16u nf=1 m=1
M1[30] Vout vg AVDD AVDD pfet_03v3 L=1u W=16u nf=1 m=1
M1[31] Vout vg AVDD AVDD pfet_03v3 L=1u W=16u nf=1 m=1
M1[32] Vout vg AVDD AVDD pfet_03v3 L=1u W=16u nf=1 m=1
M1[33] Vout vg AVDD AVDD pfet_03v3 L=1u W=16u nf=1 m=1
M1[34] Vout vg AVDD AVDD pfet_03v3 L=1u W=16u nf=1 m=1
M1[35] Vout vg AVDD AVDD pfet_03v3 L=1u W=16u nf=1 m=1
M1[36] Vout vg AVDD AVDD pfet_03v3 L=1u W=16u nf=1 m=1
M1[37] Vout vg AVDD AVDD pfet_03v3 L=1u W=16u nf=1 m=1
M1[38] Vout vg AVDD AVDD pfet_03v3 L=1u W=16u nf=1 m=1
M1[39] Vout vg AVDD AVDD pfet_03v3 L=1u W=16u nf=1 m=1
M1[40] Vout vg AVDD AVDD pfet_03v3 L=1u W=16u nf=1 m=1
M1[41] Vout vg AVDD AVDD pfet_03v3 L=1u W=16u nf=1 m=1
M1[42] Vout vg AVDD AVDD pfet_03v3 L=1u W=16u nf=1 m=1
M1[43] Vout vg AVDD AVDD pfet_03v3 L=1u W=16u nf=1 m=1
M1[44] Vout vg AVDD AVDD pfet_03v3 L=1u W=16u nf=1 m=1
M1[45] Vout vg AVDD AVDD pfet_03v3 L=1u W=16u nf=1 m=1
M1[46] Vout vg AVDD AVDD pfet_03v3 L=1u W=16u nf=1 m=1
M1[47] Vout vg AVDD AVDD pfet_03v3 L=1u W=16u nf=1 m=1
M1[48] Vout vg AVDD AVDD pfet_03v3 L=1u W=16u nf=1 m=1
M1[49] Vout vg AVDD AVDD pfet_03v3 L=1u W=16u nf=1 m=1
M1[50] Vout vg AVDD AVDD pfet_03v3 L=1u W=16u nf=1 m=1
M1[51] Vout vg AVDD AVDD pfet_03v3 L=1u W=16u nf=1 m=1
M1[52] Vout vg AVDD AVDD pfet_03v3 L=1u W=16u nf=1 m=1
M1[53] Vout vg AVDD AVDD pfet_03v3 L=1u W=16u nf=1 m=1
M1[54] Vout vg AVDD AVDD pfet_03v3 L=1u W=16u nf=1 m=1
M1[55] Vout vg AVDD AVDD pfet_03v3 L=1u W=16u nf=1 m=1
M1[56] Vout vg AVDD AVDD pfet_03v3 L=1u W=16u nf=1 m=1
M1[57] Vout vg AVDD AVDD pfet_03v3 L=1u W=16u nf=1 m=1
M1[58] Vout vg AVDD AVDD pfet_03v3 L=1u W=16u nf=1 m=1
M1[59] Vout vg AVDD AVDD pfet_03v3 L=1u W=16u nf=1 m=1
M1[60] Vout vg AVDD AVDD pfet_03v3 L=1u W=16u nf=1 m=1
M1[61] Vout vg AVDD AVDD pfet_03v3 L=1u W=16u nf=1 m=1
M1[62] Vout vg AVDD AVDD pfet_03v3 L=1u W=16u nf=1 m=1
M1[63] Vout vg AVDD AVDD pfet_03v3 L=1u W=16u nf=1 m=1
M1[64] Vout vg AVDD AVDD pfet_03v3 L=1u W=16u nf=1 m=1
M1[65] Vout vg AVDD AVDD pfet_03v3 L=1u W=16u nf=1 m=1
M1[66] Vout vg AVDD AVDD pfet_03v3 L=1u W=16u nf=1 m=1
M1[67] Vout vg AVDD AVDD pfet_03v3 L=1u W=16u nf=1 m=1
M1[68] Vout vg AVDD AVDD pfet_03v3 L=1u W=16u nf=1 m=1
M1[69] Vout vg AVDD AVDD pfet_03v3 L=1u W=16u nf=1 m=1
M1[70] Vout vg AVDD AVDD pfet_03v3 L=1u W=16u nf=1 m=1
M1[71] Vout vg AVDD AVDD pfet_03v3 L=1u W=16u nf=1 m=1
M1[72] Vout vg AVDD AVDD pfet_03v3 L=1u W=16u nf=1 m=1
M1[73] Vout vg AVDD AVDD pfet_03v3 L=1u W=16u nf=1 m=1
M1[74] Vout vg AVDD AVDD pfet_03v3 L=1u W=16u nf=1 m=1
M1[75] Vout vg AVDD AVDD pfet_03v3 L=1u W=16u nf=1 m=1
M1[76] Vout vg AVDD AVDD pfet_03v3 L=1u W=16u nf=1 m=1
M1[77] Vout vg AVDD AVDD pfet_03v3 L=1u W=16u nf=1 m=1
M1[78] Vout vg AVDD AVDD pfet_03v3 L=1u W=16u nf=1 m=1
M1[79] Vout vg AVDD AVDD pfet_03v3 L=1u W=16u nf=1 m=1
M1[80] Vout vg AVDD AVDD pfet_03v3 L=1u W=16u nf=1 m=1
M1[81] Vout vg AVDD AVDD pfet_03v3 L=1u W=16u nf=1 m=1
M1[82] Vout vg AVDD AVDD pfet_03v3 L=1u W=16u nf=1 m=1
M1[83] Vout vg AVDD AVDD pfet_03v3 L=1u W=16u nf=1 m=1
M1[84] Vout vg AVDD AVDD pfet_03v3 L=1u W=16u nf=1 m=1
M1[85] Vout vg AVDD AVDD pfet_03v3 L=1u W=16u nf=1 m=1
M1[86] Vout vg AVDD AVDD pfet_03v3 L=1u W=16u nf=1 m=1
M1[87] Vout vg AVDD AVDD pfet_03v3 L=1u W=16u nf=1 m=1
M1[88] Vout vg AVDD AVDD pfet_03v3 L=1u W=16u nf=1 m=1
M1[89] Vout vg AVDD AVDD pfet_03v3 L=1u W=16u nf=1 m=1
M1[90] Vout vg AVDD AVDD pfet_03v3 L=1u W=16u nf=1 m=1
M1[91] Vout vg AVDD AVDD pfet_03v3 L=1u W=16u nf=1 m=1
M1[92] Vout vg AVDD AVDD pfet_03v3 L=1u W=16u nf=1 m=1
M1[93] Vout vg AVDD AVDD pfet_03v3 L=1u W=16u nf=1 m=1
M1[94] Vout vg AVDD AVDD pfet_03v3 L=1u W=16u nf=1 m=1
M1[95] Vout vg AVDD AVDD pfet_03v3 L=1u W=16u nf=1 m=1
M1[96] Vout vg AVDD AVDD pfet_03v3 L=1u W=16u nf=1 m=1
M1[97] Vout vg AVDD AVDD pfet_03v3 L=1u W=16u nf=1 m=1
M1[98] Vout vg AVDD AVDD pfet_03v3 L=1u W=16u nf=1 m=1
M1[99] Vout vg AVDD AVDD pfet_03v3 L=1u W=16u nf=1 m=1
M1[100] Vout vg AVDD AVDD pfet_03v3 L=1u W=16u nf=1 m=1
M1[101] Vout vg AVDD AVDD pfet_03v3 L=1u W=16u nf=1 m=1
M1[102] Vout vg AVDD AVDD pfet_03v3 L=1u W=16u nf=1 m=1
M1[103] Vout vg AVDD AVDD pfet_03v3 L=1u W=16u nf=1 m=1
M1[104] Vout vg AVDD AVDD pfet_03v3 L=1u W=16u nf=1 m=1
M1[105] Vout vg AVDD AVDD pfet_03v3 L=1u W=16u nf=1 m=1
M1[106] Vout vg AVDD AVDD pfet_03v3 L=1u W=16u nf=1 m=1
M1[107] Vout vg AVDD AVDD pfet_03v3 L=1u W=16u nf=1 m=1
M1[108] Vout vg AVDD AVDD pfet_03v3 L=1u W=16u nf=1 m=1
M1[109] Vout vg AVDD AVDD pfet_03v3 L=1u W=16u nf=1 m=1
M1[110] Vout vg AVDD AVDD pfet_03v3 L=1u W=16u nf=1 m=1
M1[111] Vout vg AVDD AVDD pfet_03v3 L=1u W=16u nf=1 m=1
M1[112] Vout vg AVDD AVDD pfet_03v3 L=1u W=16u nf=1 m=1
M1[113] Vout vg AVDD AVDD pfet_03v3 L=1u W=16u nf=1 m=1
M1[114] Vout vg AVDD AVDD pfet_03v3 L=1u W=16u nf=1 m=1
M1[115] Vout vg AVDD AVDD pfet_03v3 L=1u W=16u nf=1 m=1
M1[116] Vout vg AVDD AVDD pfet_03v3 L=1u W=16u nf=1 m=1
M1[117] Vout vg AVDD AVDD pfet_03v3 L=1u W=16u nf=1 m=1
M1[118] Vout vg AVDD AVDD pfet_03v3 L=1u W=16u nf=1 m=1
M1[119] Vout vg AVDD AVDD pfet_03v3 L=1u W=16u nf=1 m=1
M1[120] Vout vg AVDD AVDD pfet_03v3 L=1u W=16u nf=1 m=1
M1[121] Vout vg AVDD AVDD pfet_03v3 L=1u W=16u nf=1 m=1
M1[122] Vout vg AVDD AVDD pfet_03v3 L=1u W=16u nf=1 m=1
M1[123] Vout vg AVDD AVDD pfet_03v3 L=1u W=16u nf=1 m=1
M1[124] Vout vg AVDD AVDD pfet_03v3 L=1u W=16u nf=1 m=1
M1[125] Vout vg AVDD AVDD pfet_03v3 L=1u W=16u nf=1 m=1
M1[126] Vout vg AVDD AVDD pfet_03v3 L=1u W=16u nf=1 m=1
M1[127] Vout vg AVDD AVDD pfet_03v3 L=1u W=16u nf=1 m=1
M1[128] Vout vg AVDD AVDD pfet_03v3 L=1u W=16u nf=1 m=1
M1[129] Vout vg AVDD AVDD pfet_03v3 L=1u W=16u nf=1 m=1
M1[130] Vout vg AVDD AVDD pfet_03v3 L=1u W=16u nf=1 m=1
M1[131] Vout vg AVDD AVDD pfet_03v3 L=1u W=16u nf=1 m=1
M1[132] Vout vg AVDD AVDD pfet_03v3 L=1u W=16u nf=1 m=1
M1[133] Vout vg AVDD AVDD pfet_03v3 L=1u W=16u nf=1 m=1
M1[134] Vout vg AVDD AVDD pfet_03v3 L=1u W=16u nf=1 m=1
M1[135] Vout vg AVDD AVDD pfet_03v3 L=1u W=16u nf=1 m=1
M1[136] Vout vg AVDD AVDD pfet_03v3 L=1u W=16u nf=1 m=1
M1[137] Vout vg AVDD AVDD pfet_03v3 L=1u W=16u nf=1 m=1
M1[138] Vout vg AVDD AVDD pfet_03v3 L=1u W=16u nf=1 m=1
M1[139] Vout vg AVDD AVDD pfet_03v3 L=1u W=16u nf=1 m=1
M1[140] Vout vg AVDD AVDD pfet_03v3 L=1u W=16u nf=1 m=1
M1[141] Vout vg AVDD AVDD pfet_03v3 L=1u W=16u nf=1 m=1
M1[142] Vout vg AVDD AVDD pfet_03v3 L=1u W=16u nf=1 m=1
M1[143] Vout vg AVDD AVDD pfet_03v3 L=1u W=16u nf=1 m=1
M1[144] Vout vg AVDD AVDD pfet_03v3 L=1u W=16u nf=1 m=1
M1[145] Vout vg AVDD AVDD pfet_03v3 L=1u W=16u nf=1 m=1
M1[146] Vout vg AVDD AVDD pfet_03v3 L=1u W=16u nf=1 m=1
M1[147] Vout vg AVDD AVDD pfet_03v3 L=1u W=16u nf=1 m=1
M1[148] Vout vg AVDD AVDD pfet_03v3 L=1u W=16u nf=1 m=1
M1[149] Vout vg AVDD AVDD pfet_03v3 L=1u W=16u nf=1 m=1
M1[150] Vout vg AVDD AVDD pfet_03v3 L=1u W=16u nf=1 m=1
M1[151] Vout vg AVDD AVDD pfet_03v3 L=1u W=16u nf=1 m=1
M1[152] Vout vg AVDD AVDD pfet_03v3 L=1u W=16u nf=1 m=1
M1[153] Vout vg AVDD AVDD pfet_03v3 L=1u W=16u nf=1 m=1
M1[154] Vout vg AVDD AVDD pfet_03v3 L=1u W=16u nf=1 m=1
M1[155] Vout vg AVDD AVDD pfet_03v3 L=1u W=16u nf=1 m=1
M1[156] Vout vg AVDD AVDD pfet_03v3 L=1u W=16u nf=1 m=1
M1[157] Vout vg AVDD AVDD pfet_03v3 L=1u W=16u nf=1 m=1
M1[158] Vout vg AVDD AVDD pfet_03v3 L=1u W=16u nf=1 m=1
M1[159] Vout vg AVDD AVDD pfet_03v3 L=1u W=16u nf=1 m=1
M1[160] Vout vg AVDD AVDD pfet_03v3 L=1u W=16u nf=1 m=1
M1[161] Vout vg AVDD AVDD pfet_03v3 L=1u W=16u nf=1 m=1
M1[162] Vout vg AVDD AVDD pfet_03v3 L=1u W=16u nf=1 m=1
M1[163] Vout vg AVDD AVDD pfet_03v3 L=1u W=16u nf=1 m=1
M1[164] Vout vg AVDD AVDD pfet_03v3 L=1u W=16u nf=1 m=1
M1[165] Vout vg AVDD AVDD pfet_03v3 L=1u W=16u nf=1 m=1
M1[166] Vout vg AVDD AVDD pfet_03v3 L=1u W=16u nf=1 m=1
M1[167] Vout vg AVDD AVDD pfet_03v3 L=1u W=16u nf=1 m=1
M1[168] Vout vg AVDD AVDD pfet_03v3 L=1u W=16u nf=1 m=1
M1[169] Vout vg AVDD AVDD pfet_03v3 L=1u W=16u nf=1 m=1
M1[170] Vout vg AVDD AVDD pfet_03v3 L=1u W=16u nf=1 m=1
M1[171] Vout vg AVDD AVDD pfet_03v3 L=1u W=16u nf=1 m=1
M1[172] Vout vg AVDD AVDD pfet_03v3 L=1u W=16u nf=1 m=1
M1[173] Vout vg AVDD AVDD pfet_03v3 L=1u W=16u nf=1 m=1
M1[174] Vout vg AVDD AVDD pfet_03v3 L=1u W=16u nf=1 m=1
M1[175] Vout vg AVDD AVDD pfet_03v3 L=1u W=16u nf=1 m=1
M1[176] Vout vg AVDD AVDD pfet_03v3 L=1u W=16u nf=1 m=1
M1[177] Vout vg AVDD AVDD pfet_03v3 L=1u W=16u nf=1 m=1
M1[178] Vout vg AVDD AVDD pfet_03v3 L=1u W=16u nf=1 m=1
M1[179] Vout vg AVDD AVDD pfet_03v3 L=1u W=16u nf=1 m=1
M1[180] Vout vg AVDD AVDD pfet_03v3 L=1u W=16u nf=1 m=1
M1[181] Vout vg AVDD AVDD pfet_03v3 L=1u W=16u nf=1 m=1
M1[182] Vout vg AVDD AVDD pfet_03v3 L=1u W=16u nf=1 m=1
M1[183] Vout vg AVDD AVDD pfet_03v3 L=1u W=16u nf=1 m=1
M1[184] Vout vg AVDD AVDD pfet_03v3 L=1u W=16u nf=1 m=1
M1[185] Vout vg AVDD AVDD pfet_03v3 L=1u W=16u nf=1 m=1
M1[186] Vout vg AVDD AVDD pfet_03v3 L=1u W=16u nf=1 m=1
M1[187] Vout vg AVDD AVDD pfet_03v3 L=1u W=16u nf=1 m=1
M1[188] Vout vg AVDD AVDD pfet_03v3 L=1u W=16u nf=1 m=1
M1[189] Vout vg AVDD AVDD pfet_03v3 L=1u W=16u nf=1 m=1
M1[190] Vout vg AVDD AVDD pfet_03v3 L=1u W=16u nf=1 m=1
M1[191] Vout vg AVDD AVDD pfet_03v3 L=1u W=16u nf=1 m=1
M1[192] Vout vg AVDD AVDD pfet_03v3 L=1u W=16u nf=1 m=1
M1[193] Vout vg AVDD AVDD pfet_03v3 L=1u W=16u nf=1 m=1
M1[194] Vout vg AVDD AVDD pfet_03v3 L=1u W=16u nf=1 m=1
M1[195] Vout vg AVDD AVDD pfet_03v3 L=1u W=16u nf=1 m=1
M1[196] Vout vg AVDD AVDD pfet_03v3 L=1u W=16u nf=1 m=1
M1[197] Vout vg AVDD AVDD pfet_03v3 L=1u W=16u nf=1 m=1
M1[198] Vout vg AVDD AVDD pfet_03v3 L=1u W=16u nf=1 m=1
M1[199] Vout vg AVDD AVDD pfet_03v3 L=1u W=16u nf=1 m=1
M1[200] Vout vg AVDD AVDD pfet_03v3 L=1u W=16u nf=1 m=1
x1 vref_off Vin vg ibias AVDD GND FoldedCascode
x2 Vout vref_off Res_Div
.ends


* expanding   symbol:  LDO/UndervoltageProtection.sym # of pins=5
** sym_path: /home/gmaranhao/Desktop/Bracolin/Voltage_Reference/LDO/UndervoltageProtection.sym
** sch_path: /home/gmaranhao/Desktop/Bracolin/Voltage_Reference/LDO/UndervoltageProtection.sch
.subckt UndervoltageProtection vdd iref vref vfb PowerGate
*.PININFO PowerGate:B vfb:B vref:B iref:B vdd:B
M2[1] GND vref b vdd pfet_03v3 L=2u W=2u nf=1 m=1
M2[2] GND vref b vdd pfet_03v3 L=2u W=2u nf=1 m=1
M2[3] GND vref b vdd pfet_03v3 L=2u W=2u nf=1 m=1
M2[4] GND vref b vdd pfet_03v3 L=2u W=2u nf=1 m=1
M2[5] GND vref b vdd pfet_03v3 L=2u W=2u nf=1 m=1
M2[6] GND vref b vdd pfet_03v3 L=2u W=2u nf=1 m=1
M2[7] GND vref b vdd pfet_03v3 L=2u W=2u nf=1 m=1
M2[8] GND vref b vdd pfet_03v3 L=2u W=2u nf=1 m=1
M3[1] c vfb b vdd pfet_03v3 L=2u W=2u nf=1 m=1
M3[2] c vfb b vdd pfet_03v3 L=2u W=2u nf=1 m=1
M3[3] c vfb b vdd pfet_03v3 L=2u W=2u nf=1 m=1
M3[4] c vfb b vdd pfet_03v3 L=2u W=2u nf=1 m=1
M3[5] c vfb b vdd pfet_03v3 L=2u W=2u nf=1 m=1
M3[6] c vfb b vdd pfet_03v3 L=2u W=2u nf=1 m=1
M3[7] c vfb b vdd pfet_03v3 L=2u W=2u nf=1 m=1
M3[8] c vfb b vdd pfet_03v3 L=2u W=2u nf=1 m=1
M4[1] c a GND GND nfet_03v3 L=2u W=2u nf=1 m=1
M4[2] c a GND GND nfet_03v3 L=2u W=2u nf=1 m=1
M4[3] c a GND GND nfet_03v3 L=2u W=2u nf=1 m=1
M4[4] c a GND GND nfet_03v3 L=2u W=2u nf=1 m=1
M4[5] c a GND GND nfet_03v3 L=2u W=2u nf=1 m=1
M5[1] PowerGate c GND GND nfet_03v3 L=1u W=2u nf=1 m=1
M5[2] PowerGate c GND GND nfet_03v3 L=1u W=2u nf=1 m=1
M5[3] PowerGate c GND GND nfet_03v3 L=1u W=2u nf=1 m=1
M6[1] a a GND GND nfet_03v3 L=2u W=2u nf=1 m=1
M6[2] a a GND GND nfet_03v3 L=2u W=2u nf=1 m=1
M6[3] a a GND GND nfet_03v3 L=2u W=2u nf=1 m=1
M7[1] GND b GND GND nfet_03v3 L=10u W=10u nf=1 m=1
M7[2] GND b GND GND nfet_03v3 L=10u W=10u nf=1 m=1
M7[3] GND b GND GND nfet_03v3 L=10u W=10u nf=1 m=1
M7[4] GND b GND GND nfet_03v3 L=10u W=10u nf=1 m=1
M7[5] GND b GND GND nfet_03v3 L=10u W=10u nf=1 m=1
M7[6] GND b GND GND nfet_03v3 L=10u W=10u nf=1 m=1
M7[7] GND b GND GND nfet_03v3 L=10u W=10u nf=1 m=1
M7[8] GND b GND GND nfet_03v3 L=10u W=10u nf=1 m=1
M7[9] GND b GND GND nfet_03v3 L=10u W=10u nf=1 m=1
M11[1] b iref vdd vdd pfet_03v3 L=2u W=2u nf=1 m=1
M11[2] b iref vdd vdd pfet_03v3 L=2u W=2u nf=1 m=1
M8[1] a iref vdd vdd pfet_03v3 L=2u W=2u nf=1 m=1
M8[2] a iref vdd vdd pfet_03v3 L=2u W=2u nf=1 m=1
M1 c c GND GND nfet_03v3 L=1u W=2u nf=1 m=1
.ends


* expanding   symbol:  LDO/overvoltageProtection.sym # of pins=6
** sym_path: /home/gmaranhao/Desktop/Bracolin/Voltage_Reference/LDO/overvoltageProtection.sym
** sch_path: /home/gmaranhao/Desktop/Bracolin/Voltage_Reference/LDO/overvoltageProtection.sch
.subckt overvoltageProtection Load PowerGate vref Vfb vdd iref
*.PININFO vref:B iref:B vdd:B Load:B Vfb:B PowerGate:B
M2[1] b a Vfb vdd pfet_03v3 L=2u W=2u nf=1 m=1
M2[2] b a Vfb vdd pfet_03v3 L=2u W=2u nf=1 m=1
M2[3] b a Vfb vdd pfet_03v3 L=2u W=2u nf=1 m=1
M2[4] b a Vfb vdd pfet_03v3 L=2u W=2u nf=1 m=1
M2[5] b a Vfb vdd pfet_03v3 L=2u W=2u nf=1 m=1
M2[6] b a Vfb vdd pfet_03v3 L=2u W=2u nf=1 m=1
M2[7] b a Vfb vdd pfet_03v3 L=2u W=2u nf=1 m=1
M2[8] b a Vfb vdd pfet_03v3 L=2u W=2u nf=1 m=1
M4[1] b iref GND GND nfet_03v3 L=2u W=2u nf=1 m=1
M4[2] b iref GND GND nfet_03v3 L=2u W=2u nf=1 m=1
M4[3] b iref GND GND nfet_03v3 L=2u W=2u nf=1 m=1
M5[1] Load b GND GND nfet_03v3 L=450n W=20u nf=1 m=1
M5[2] Load b GND GND nfet_03v3 L=450n W=20u nf=1 m=1
M5[3] Load b GND GND nfet_03v3 L=450n W=20u nf=1 m=1
M5[4] Load b GND GND nfet_03v3 L=450n W=20u nf=1 m=1
M5[5] Load b GND GND nfet_03v3 L=450n W=20u nf=1 m=1
M5[6] Load b GND GND nfet_03v3 L=450n W=20u nf=1 m=1
M5[7] Load b GND GND nfet_03v3 L=450n W=20u nf=1 m=1
M5[8] Load b GND GND nfet_03v3 L=450n W=20u nf=1 m=1
M5[9] Load b GND GND nfet_03v3 L=450n W=20u nf=1 m=1
M5[10] Load b GND GND nfet_03v3 L=450n W=20u nf=1 m=1
M5[11] Load b GND GND nfet_03v3 L=450n W=20u nf=1 m=1
M5[12] Load b GND GND nfet_03v3 L=450n W=20u nf=1 m=1
M5[13] Load b GND GND nfet_03v3 L=450n W=20u nf=1 m=1
M5[14] Load b GND GND nfet_03v3 L=450n W=20u nf=1 m=1
M5[15] Load b GND GND nfet_03v3 L=450n W=20u nf=1 m=1
M5[16] Load b GND GND nfet_03v3 L=450n W=20u nf=1 m=1
M1[1] a a vref vdd pfet_03v3 L=2u W=2u nf=1 m=1
M1[2] a a vref vdd pfet_03v3 L=2u W=2u nf=1 m=1
M1[3] a a vref vdd pfet_03v3 L=2u W=2u nf=1 m=1
M1[4] a a vref vdd pfet_03v3 L=2u W=2u nf=1 m=1
M1[5] a a vref vdd pfet_03v3 L=2u W=2u nf=1 m=1
M1[6] a a vref vdd pfet_03v3 L=2u W=2u nf=1 m=1
M1[7] a a vref vdd pfet_03v3 L=2u W=2u nf=1 m=1
M1[8] a a vref vdd pfet_03v3 L=2u W=2u nf=1 m=1
M3[1] a iref GND GND nfet_03v3 L=2u W=2u nf=1 m=1
M3[2] a iref GND GND nfet_03v3 L=2u W=2u nf=1 m=1
M6[1] PowerGate c vdd vdd pfet_03v3 L=1u W=2u nf=1 m=1
M6[2] PowerGate c vdd vdd pfet_03v3 L=1u W=2u nf=1 m=1
M6[3] PowerGate c vdd vdd pfet_03v3 L=1u W=2u nf=1 m=1
M6[4] PowerGate c vdd vdd pfet_03v3 L=1u W=2u nf=1 m=1
M7 c c vdd vdd pfet_03v3 L=5u W=1u nf=1 m=1
M8 c b f GND nfet_03v3 L=2u W=2u nf=1 m=1
M10 net1 b GND GND nfet_03v3 L=20u W=500n nf=1 m=1
M12 b b net1 GND nfet_03v3 L=20u W=500n nf=1 m=1
M9 vdd d f GND nfet_03v3 L=2u W=2u nf=1 m=1
M11 net2 d GND GND nfet_03v3 L=20u W=500n nf=1 m=1
M13 d d net2 GND nfet_03v3 L=20u W=500n nf=1 m=1
M14[1] f iref GND GND nfet_03v3 L=2u W=2u nf=1 m=1
M14[2] f iref GND GND nfet_03v3 L=2u W=2u nf=1 m=1
M14[3] f iref GND GND nfet_03v3 L=2u W=2u nf=1 m=1
M14[4] f iref GND GND nfet_03v3 L=2u W=2u nf=1 m=1
M15[1] d e vdd vdd pfet_03v3 L=2u W=2u nf=1 m=1
M15[2] d e vdd vdd pfet_03v3 L=2u W=2u nf=1 m=1
M16 e e vdd vdd pfet_03v3 L=2u W=2u nf=1 m=1
M17 e iref GND GND nfet_03v3 L=2u W=2u nf=1 m=1
.ends


* expanding   symbol:  LDO/Folded/FoldedCascode.sym # of pins=6
** sym_path: /home/gmaranhao/Desktop/Bracolin/Voltage_Reference/LDO/Folded/FoldedCascode.sym
** sch_path: /home/gmaranhao/Desktop/Bracolin/Voltage_Reference/LDO/Folded/FoldedCascode.sch
.subckt FoldedCascode VP VN vout IREF AVDD AVSS
*.PININFO AVDD:B AVSS:B vout:B VP:B VN:B IREF:B
x7 v2 v1 M3_D vout vb3 vb3 AVSS FC_nfets
x5 AVSS AVSS v2 v1 vb2 vb2 AVSS FC_nfets_x2
x1 AVDD AVDD net1 net1 IREF IREF AVDD FC_pfets_x4
x2 net1 net1 v2 v1 VP VN AVDD FC_pfets_x4
x3 net2 net3 M3_D vout vb4 vb4 AVDD FC_pfets_x4
x4 AVDD AVDD net2 net3 M3_D M3_D AVDD FC_pfets_x4
x11 IREF IREF vb2 vb3 vb4 AVDD AVSS FC_bias_net
.ends


* expanding   symbol:  LDO/CM_block.sym # of pins=4
** sym_path: /home/gmaranhao/Desktop/Bracolin/Voltage_Reference/LDO/CM_block.sym
** sch_path: /home/gmaranhao/Desktop/Bracolin/Voltage_Reference/LDO/CM_block.sch
.subckt CM_block ibias iref_un iref_diff iref
*.PININFO ibias:B iref:B iref_un:B iref_diff:B
M4[1] iref_un ibias GND GND nfet_03v3 L=2u W=2u nf=1 m=1
M4[2] iref_un ibias GND GND nfet_03v3 L=2u W=2u nf=1 m=1
M4[3] iref_un ibias GND GND nfet_03v3 L=2u W=2u nf=1 m=1
M4[4] iref_un ibias GND GND nfet_03v3 L=2u W=2u nf=1 m=1
M4[5] iref_un ibias GND GND nfet_03v3 L=2u W=2u nf=1 m=1
M4[6] iref_un ibias GND GND nfet_03v3 L=2u W=2u nf=1 m=1
M1[1] iref_diff ibias GND GND nfet_03v3 L=2u W=2u nf=1 m=1
M1[2] iref_diff ibias GND GND nfet_03v3 L=2u W=2u nf=1 m=1
M1[3] iref_diff ibias GND GND nfet_03v3 L=2u W=2u nf=1 m=1
M1[4] iref_diff ibias GND GND nfet_03v3 L=2u W=2u nf=1 m=1
M1[5] iref_diff ibias GND GND nfet_03v3 L=2u W=2u nf=1 m=1
M1[6] iref_diff ibias GND GND nfet_03v3 L=2u W=2u nf=1 m=1
M1[7] iref_diff ibias GND GND nfet_03v3 L=2u W=2u nf=1 m=1
M1[8] iref_diff ibias GND GND nfet_03v3 L=2u W=2u nf=1 m=1
M2[1] iref ibias GND GND nfet_03v3 L=2u W=2u nf=1 m=1
M2[2] iref ibias GND GND nfet_03v3 L=2u W=2u nf=1 m=1
M2[3] iref ibias GND GND nfet_03v3 L=2u W=2u nf=1 m=1
M2[4] iref ibias GND GND nfet_03v3 L=2u W=2u nf=1 m=1
M5 ibias ibias GND GND nfet_03v3 L=2u W=2u nf=1 m=1
M3[1] GND GND GND GND nfet_03v3 L=2u W=2u nf=1 m=1
M3[2] GND GND GND GND nfet_03v3 L=2u W=2u nf=1 m=1
M3[3] GND GND GND GND nfet_03v3 L=2u W=2u nf=1 m=1
M3[4] GND GND GND GND nfet_03v3 L=2u W=2u nf=1 m=1
M3[5] GND GND GND GND nfet_03v3 L=2u W=2u nf=1 m=1
M3[6] GND GND GND GND nfet_03v3 L=2u W=2u nf=1 m=1
M3[7] GND GND GND GND nfet_03v3 L=2u W=2u nf=1 m=1
M3[8] GND GND GND GND nfet_03v3 L=2u W=2u nf=1 m=1
M3[9] GND GND GND GND nfet_03v3 L=2u W=2u nf=1 m=1
M3[10] GND GND GND GND nfet_03v3 L=2u W=2u nf=1 m=1
M3[11] GND GND GND GND nfet_03v3 L=2u W=2u nf=1 m=1
M3[12] GND GND GND GND nfet_03v3 L=2u W=2u nf=1 m=1
M3[13] GND GND GND GND nfet_03v3 L=2u W=2u nf=1 m=1
M3[14] GND GND GND GND nfet_03v3 L=2u W=2u nf=1 m=1
M3[15] GND GND GND GND nfet_03v3 L=2u W=2u nf=1 m=1
M3[16] GND GND GND GND nfet_03v3 L=2u W=2u nf=1 m=1
M3[17] GND GND GND GND nfet_03v3 L=2u W=2u nf=1 m=1
M3[18] GND GND GND GND nfet_03v3 L=2u W=2u nf=1 m=1
M3[19] GND GND GND GND nfet_03v3 L=2u W=2u nf=1 m=1
M3[20] GND GND GND GND nfet_03v3 L=2u W=2u nf=1 m=1
M3[21] GND GND GND GND nfet_03v3 L=2u W=2u nf=1 m=1
M3[22] GND GND GND GND nfet_03v3 L=2u W=2u nf=1 m=1
M3[23] GND GND GND GND nfet_03v3 L=2u W=2u nf=1 m=1
M3[24] GND GND GND GND nfet_03v3 L=2u W=2u nf=1 m=1
M3[25] GND GND GND GND nfet_03v3 L=2u W=2u nf=1 m=1
M3[26] GND GND GND GND nfet_03v3 L=2u W=2u nf=1 m=1
M3[27] GND GND GND GND nfet_03v3 L=2u W=2u nf=1 m=1
M3[28] GND GND GND GND nfet_03v3 L=2u W=2u nf=1 m=1
M3[29] GND GND GND GND nfet_03v3 L=2u W=2u nf=1 m=1
M3[30] GND GND GND GND nfet_03v3 L=2u W=2u nf=1 m=1
M3[31] GND GND GND GND nfet_03v3 L=2u W=2u nf=1 m=1
M3[32] GND GND GND GND nfet_03v3 L=2u W=2u nf=1 m=1
M3[33] GND GND GND GND nfet_03v3 L=2u W=2u nf=1 m=1
M3[34] GND GND GND GND nfet_03v3 L=2u W=2u nf=1 m=1
M3[35] GND GND GND GND nfet_03v3 L=2u W=2u nf=1 m=1
M3[36] GND GND GND GND nfet_03v3 L=2u W=2u nf=1 m=1
M3[37] GND GND GND GND nfet_03v3 L=2u W=2u nf=1 m=1
.ends


* expanding   symbol:  LDO/Res_Div.sym # of pins=2
** sym_path: /home/gmaranhao/Desktop/Bracolin/Voltage_Reference/LDO/Res_Div.sym
** sch_path: /home/gmaranhao/Desktop/Bracolin/Voltage_Reference/LDO/Res_Div.sch
.subckt Res_Div Vout vref_off
*.PININFO Vout:B vref_off:B
R2 net1 Vout GND ppolyf_u_1k W=2e-6 L=10e-6 m=1
R4 net2 net3 GND ppolyf_u_1k W=2e-6 L=10e-6 m=1
R1 net4 net1 GND ppolyf_u_1k W=2e-6 L=10e-6 m=1
R3 net5 net4 GND ppolyf_u_1k W=2e-6 L=10e-6 m=1
R5 vref_off net5 GND ppolyf_u_1k W=2e-6 L=10e-6 m=1
R6 net6 vref_off GND ppolyf_u_1k W=2e-6 L=10e-6 m=1
R7 net7 net6 GND ppolyf_u_1k W=2e-6 L=10e-6 m=1
R8 net8 net7 GND ppolyf_u_1k W=2e-6 L=10e-6 m=1
R9 net3 net8 GND ppolyf_u_1k W=2e-6 L=10e-6 m=1
R10 AB net9 GND ppolyf_u_1k W=2e-6 L=10e-6 m=1
R11 net10 net2 GND ppolyf_u_1k W=2e-6 L=10e-6 m=1
R12 net11 net10 GND ppolyf_u_1k W=2e-6 L=10e-6 m=1
R13 net12 net11 GND ppolyf_u_1k W=2e-6 L=10e-6 m=1
R14 net9 net12 GND ppolyf_u_1k W=2e-6 L=10e-6 m=1
R15 net13 net14 GND ppolyf_u_1k W=2e-6 L=10e-6 m=1
R16 net15 AB GND ppolyf_u_1k W=2e-6 L=10e-6 m=1
R17 net16 net15 GND ppolyf_u_1k W=2e-6 L=10e-6 m=1
R18 net17 net16 GND ppolyf_u_1k W=2e-6 L=10e-6 m=1
R19 net14 net17 GND ppolyf_u_1k W=2e-6 L=10e-6 m=1
R21 net18 net13 GND ppolyf_u_1k W=2e-6 L=10e-6 m=1
R22 net19 net18 GND ppolyf_u_1k W=2e-6 L=10e-6 m=1
R23 net20 net19 GND ppolyf_u_1k W=2e-6 L=10e-6 m=1
R24 GND net20 GND ppolyf_u_1k W=2e-6 L=10e-6 m=1
R20[1] GND GND GND ppolyf_u_1k W=2e-6 L=10e-6 m=1
R20[2] GND GND GND ppolyf_u_1k W=2e-6 L=10e-6 m=1
R20[3] GND GND GND ppolyf_u_1k W=2e-6 L=10e-6 m=1
R20[4] GND GND GND ppolyf_u_1k W=2e-6 L=10e-6 m=1
R20[5] GND GND GND ppolyf_u_1k W=2e-6 L=10e-6 m=1
R20[6] GND GND GND ppolyf_u_1k W=2e-6 L=10e-6 m=1
R20[7] GND GND GND ppolyf_u_1k W=2e-6 L=10e-6 m=1
R20[8] GND GND GND ppolyf_u_1k W=2e-6 L=10e-6 m=1
R20[9] GND GND GND ppolyf_u_1k W=2e-6 L=10e-6 m=1
R20[10] GND GND GND ppolyf_u_1k W=2e-6 L=10e-6 m=1
R20[11] GND GND GND ppolyf_u_1k W=2e-6 L=10e-6 m=1
R20[12] GND GND GND ppolyf_u_1k W=2e-6 L=10e-6 m=1
R20[13] GND GND GND ppolyf_u_1k W=2e-6 L=10e-6 m=1
R20[14] GND GND GND ppolyf_u_1k W=2e-6 L=10e-6 m=1
R20[15] GND GND GND ppolyf_u_1k W=2e-6 L=10e-6 m=1
R20[16] GND GND GND ppolyf_u_1k W=2e-6 L=10e-6 m=1
R20[17] GND GND GND ppolyf_u_1k W=2e-6 L=10e-6 m=1
R20[18] GND GND GND ppolyf_u_1k W=2e-6 L=10e-6 m=1
R20[19] GND GND GND ppolyf_u_1k W=2e-6 L=10e-6 m=1
R20[20] GND GND GND ppolyf_u_1k W=2e-6 L=10e-6 m=1
R20[21] GND GND GND ppolyf_u_1k W=2e-6 L=10e-6 m=1
R20[22] GND GND GND ppolyf_u_1k W=2e-6 L=10e-6 m=1
R20[23] GND GND GND ppolyf_u_1k W=2e-6 L=10e-6 m=1
R20[24] GND GND GND ppolyf_u_1k W=2e-6 L=10e-6 m=1
R20[25] GND GND GND ppolyf_u_1k W=2e-6 L=10e-6 m=1
R20[26] GND GND GND ppolyf_u_1k W=2e-6 L=10e-6 m=1
.ends


* expanding   symbol:  LDO/Folded/FC_nfets.sym # of pins=7
** sym_path: /home/gmaranhao/Desktop/Bracolin/Voltage_Reference/LDO/Folded/FC_nfets.sym
** sch_path: /home/gmaranhao/Desktop/Bracolin/Voltage_Reference/LDO/Folded/FC_nfets.sch
.subckt FC_nfets S1 S2 D1 D2 G1 G2 B
*.PININFO S1:B S2:B D1:B D2:B G1:B G2:B B:B
M1[1] D1 G1 S1 B nfet_03v3 L=2u W=2u nf=1 m=1
M1[2] D1 G1 S1 B nfet_03v3 L=2u W=2u nf=1 m=1
M1[3] D1 G1 S1 B nfet_03v3 L=2u W=2u nf=1 m=1
M1[4] D1 G1 S1 B nfet_03v3 L=2u W=2u nf=1 m=1
M1[5] D1 G1 S1 B nfet_03v3 L=2u W=2u nf=1 m=1
M1[6] D1 G1 S1 B nfet_03v3 L=2u W=2u nf=1 m=1
M1[7] D1 G1 S1 B nfet_03v3 L=2u W=2u nf=1 m=1
M1[8] D1 G1 S1 B nfet_03v3 L=2u W=2u nf=1 m=1
M1[9] D1 G1 S1 B nfet_03v3 L=2u W=2u nf=1 m=1
M1[10] D1 G1 S1 B nfet_03v3 L=2u W=2u nf=1 m=1
M1[11] D1 G1 S1 B nfet_03v3 L=2u W=2u nf=1 m=1
M1[12] D1 G1 S1 B nfet_03v3 L=2u W=2u nf=1 m=1
M1[13] D1 G1 S1 B nfet_03v3 L=2u W=2u nf=1 m=1
M1[14] D1 G1 S1 B nfet_03v3 L=2u W=2u nf=1 m=1
M1[15] D1 G1 S1 B nfet_03v3 L=2u W=2u nf=1 m=1
M1[16] D1 G1 S1 B nfet_03v3 L=2u W=2u nf=1 m=1
M1[17] D1 G1 S1 B nfet_03v3 L=2u W=2u nf=1 m=1
M1[18] D1 G1 S1 B nfet_03v3 L=2u W=2u nf=1 m=1
M2[1] D2 G2 S2 B nfet_03v3 L=2u W=2u nf=1 m=1
M2[2] D2 G2 S2 B nfet_03v3 L=2u W=2u nf=1 m=1
M2[3] D2 G2 S2 B nfet_03v3 L=2u W=2u nf=1 m=1
M2[4] D2 G2 S2 B nfet_03v3 L=2u W=2u nf=1 m=1
M2[5] D2 G2 S2 B nfet_03v3 L=2u W=2u nf=1 m=1
M2[6] D2 G2 S2 B nfet_03v3 L=2u W=2u nf=1 m=1
M2[7] D2 G2 S2 B nfet_03v3 L=2u W=2u nf=1 m=1
M2[8] D2 G2 S2 B nfet_03v3 L=2u W=2u nf=1 m=1
M2[9] D2 G2 S2 B nfet_03v3 L=2u W=2u nf=1 m=1
M2[10] D2 G2 S2 B nfet_03v3 L=2u W=2u nf=1 m=1
M2[11] D2 G2 S2 B nfet_03v3 L=2u W=2u nf=1 m=1
M2[12] D2 G2 S2 B nfet_03v3 L=2u W=2u nf=1 m=1
M2[13] D2 G2 S2 B nfet_03v3 L=2u W=2u nf=1 m=1
M2[14] D2 G2 S2 B nfet_03v3 L=2u W=2u nf=1 m=1
M2[15] D2 G2 S2 B nfet_03v3 L=2u W=2u nf=1 m=1
M2[16] D2 G2 S2 B nfet_03v3 L=2u W=2u nf=1 m=1
M2[17] D2 G2 S2 B nfet_03v3 L=2u W=2u nf=1 m=1
M2[18] D2 G2 S2 B nfet_03v3 L=2u W=2u nf=1 m=1
M3[1] B B B B nfet_03v3 L=2u W=2u nf=1 m=1
M3[2] B B B B nfet_03v3 L=2u W=2u nf=1 m=1
M3[3] B B B B nfet_03v3 L=2u W=2u nf=1 m=1
M3[4] B B B B nfet_03v3 L=2u W=2u nf=1 m=1
M3[5] B B B B nfet_03v3 L=2u W=2u nf=1 m=1
M3[6] B B B B nfet_03v3 L=2u W=2u nf=1 m=1
M3[7] B B B B nfet_03v3 L=2u W=2u nf=1 m=1
M3[8] B B B B nfet_03v3 L=2u W=2u nf=1 m=1
M3[9] B B B B nfet_03v3 L=2u W=2u nf=1 m=1
M3[10] B B B B nfet_03v3 L=2u W=2u nf=1 m=1
M3[11] B B B B nfet_03v3 L=2u W=2u nf=1 m=1
M3[12] B B B B nfet_03v3 L=2u W=2u nf=1 m=1
M3[13] B B B B nfet_03v3 L=2u W=2u nf=1 m=1
M3[14] B B B B nfet_03v3 L=2u W=2u nf=1 m=1
M3[15] B B B B nfet_03v3 L=2u W=2u nf=1 m=1
M3[16] B B B B nfet_03v3 L=2u W=2u nf=1 m=1
M3[17] B B B B nfet_03v3 L=2u W=2u nf=1 m=1
M3[18] B B B B nfet_03v3 L=2u W=2u nf=1 m=1
M3[19] B B B B nfet_03v3 L=2u W=2u nf=1 m=1
M3[20] B B B B nfet_03v3 L=2u W=2u nf=1 m=1
M3[21] B B B B nfet_03v3 L=2u W=2u nf=1 m=1
M3[22] B B B B nfet_03v3 L=2u W=2u nf=1 m=1
M3[23] B B B B nfet_03v3 L=2u W=2u nf=1 m=1
M3[24] B B B B nfet_03v3 L=2u W=2u nf=1 m=1
M3[25] B B B B nfet_03v3 L=2u W=2u nf=1 m=1
M3[26] B B B B nfet_03v3 L=2u W=2u nf=1 m=1
M3[27] B B B B nfet_03v3 L=2u W=2u nf=1 m=1
M3[28] B B B B nfet_03v3 L=2u W=2u nf=1 m=1
M3[29] B B B B nfet_03v3 L=2u W=2u nf=1 m=1
M3[30] B B B B nfet_03v3 L=2u W=2u nf=1 m=1
.ends


* expanding   symbol:  LDO/Folded/FC_nfets_x2.sym # of pins=7
** sym_path: /home/gmaranhao/Desktop/Bracolin/Voltage_Reference/LDO/Folded/FC_nfets_x2.sym
** sch_path: /home/gmaranhao/Desktop/Bracolin/Voltage_Reference/LDO/Folded/FC_nfets_x2.sch
.subckt FC_nfets_x2 S1 S2 D1 D2 G1 G2 B
*.PININFO S1:B S2:B D1:B D2:B G1:B G2:B B:B
x1[1] S1 S2 D1 D2 G1 G2 B FC_nfets
x1[2] S1 S2 D1 D2 G1 G2 B FC_nfets
.ends


* expanding   symbol:  LDO/Folded/FC_pfets_x4.sym # of pins=7
** sym_path: /home/gmaranhao/Desktop/Bracolin/Voltage_Reference/LDO/Folded/FC_pfets_x4.sym
** sch_path: /home/gmaranhao/Desktop/Bracolin/Voltage_Reference/LDO/Folded/FC_pfets_x4.sch
.subckt FC_pfets_x4 S1 S2 D1 D2 G1 G2 B
*.PININFO S1:B S2:B D1:B D2:B G1:B G2:B B:B
x1[1] S1 S2 D1 D2 G1 G2 B FC_pfets
x1[2] S1 S2 D1 D2 G1 G2 B FC_pfets
x1[3] S1 S2 D1 D2 G1 G2 B FC_pfets
x1[4] S1 S2 D1 D2 G1 G2 B FC_pfets
.ends


* expanding   symbol:  LDO/Folded/FC_bias_net.sym # of pins=7
** sym_path: /home/gmaranhao/Desktop/Bracolin/Voltage_Reference/LDO/Folded/FC_bias_net.sym
** sch_path: /home/gmaranhao/Desktop/Bracolin/Voltage_Reference/LDO/Folded/FC_bias_net.sch
.subckt FC_bias_net IREF VB1 VB2 VB3 VB4 VDD VSS
*.PININFO VDD:B VSS:B VB2:B IREF:B VB3:B VB4:B VB1:B
x8 VB3 VSS FC_bias_vb3
x9 VB4 VDD FC_bias_vb4
x10 VB2 VB4 VSS FC_bias_nfets
x1 VB1 VB2 VB3 IREF VDD FC_bias_pfets
.ends


* expanding   symbol:  LDO/Folded/FC_pfets.sym # of pins=7
** sym_path: /home/gmaranhao/Desktop/Bracolin/Voltage_Reference/LDO/Folded/FC_pfets.sym
** sch_path: /home/gmaranhao/Desktop/Bracolin/Voltage_Reference/LDO/Folded/FC_pfets.sch
.subckt FC_pfets S1 S2 D1 D2 G1 G2 B
*.PININFO S1:B S2:B D1:B D2:B G1:B G2:B B:B
M1[1] D1 G1 S1 B pfet_03v3 L=2u W=2u nf=1 m=1
M1[2] D1 G1 S1 B pfet_03v3 L=2u W=2u nf=1 m=1
M1[3] D1 G1 S1 B pfet_03v3 L=2u W=2u nf=1 m=1
M1[4] D1 G1 S1 B pfet_03v3 L=2u W=2u nf=1 m=1
M1[5] D1 G1 S1 B pfet_03v3 L=2u W=2u nf=1 m=1
M1[6] D1 G1 S1 B pfet_03v3 L=2u W=2u nf=1 m=1
M1[7] D1 G1 S1 B pfet_03v3 L=2u W=2u nf=1 m=1
M1[8] D1 G1 S1 B pfet_03v3 L=2u W=2u nf=1 m=1
M1[9] D1 G1 S1 B pfet_03v3 L=2u W=2u nf=1 m=1
M1[10] D1 G1 S1 B pfet_03v3 L=2u W=2u nf=1 m=1
M1[11] D1 G1 S1 B pfet_03v3 L=2u W=2u nf=1 m=1
M1[12] D1 G1 S1 B pfet_03v3 L=2u W=2u nf=1 m=1
M1[13] D1 G1 S1 B pfet_03v3 L=2u W=2u nf=1 m=1
M1[14] D1 G1 S1 B pfet_03v3 L=2u W=2u nf=1 m=1
M1[15] D1 G1 S1 B pfet_03v3 L=2u W=2u nf=1 m=1
M1[16] D1 G1 S1 B pfet_03v3 L=2u W=2u nf=1 m=1