* Extracted by KLayout with GF180MCU LVS runset on : 29/04/2024 18:36

.SUBCKT SAR_Asynchronous_top_neg_logic vocp D Valid VSSD Bit_10 Bit_10_n Bit_9
+ Bit_9_n Bit_8 Bit_8_n Bit_7 Bit_7_n Bit_6 Bit_5 Bit_4 Bit_3 Bit_2 Bit_2_n
+ Bit_1 Bit_1_n VDDD Set CK_1 clks Reset VCM
M$1 \$9 \$707 VDDD VDDD pfet_03v3 L=0.28U W=3.9U AS=2.535P AD=2.535P PS=9.1U
+ PD=9.1U
M$2 \$59 \$9 VDDD VDDD pfet_03v3 L=0.28U W=3.9U AS=2.535P AD=2.535P PS=9.1U
+ PD=9.1U
M$3 \$22 \$21 VDDD VDDD pfet_03v3 L=0.28U W=3.9U AS=2.535P AD=2.535P PS=9.1U
+ PD=9.1U
M$4 \$10 \$713 VDDD VDDD pfet_03v3 L=0.28U W=3.9U AS=2.535P AD=2.535P PS=9.1U
+ PD=9.1U
M$5 \$60 \$10 VDDD VDDD pfet_03v3 L=0.28U W=3.9U AS=2.535P AD=2.535P PS=9.1U
+ PD=9.1U
M$6 \$26 \$25 VDDD VDDD pfet_03v3 L=0.28U W=3.9U AS=2.535P AD=2.535P PS=9.1U
+ PD=9.1U
M$7 \$11 \$719 VDDD VDDD pfet_03v3 L=0.28U W=3.9U AS=2.535P AD=2.535P PS=9.1U
+ PD=9.1U
M$8 \$61 \$11 VDDD VDDD pfet_03v3 L=0.28U W=3.9U AS=2.535P AD=2.535P PS=9.1U
+ PD=9.1U
M$9 \$30 \$29 VDDD VDDD pfet_03v3 L=0.28U W=3.9U AS=2.535P AD=2.535P PS=9.1U
+ PD=9.1U
M$10 \$12 \$725 VDDD VDDD pfet_03v3 L=0.28U W=3.9U AS=2.535P AD=2.535P PS=9.1U
+ PD=9.1U
M$11 \$62 \$12 VDDD VDDD pfet_03v3 L=0.28U W=3.9U AS=2.535P AD=2.535P PS=9.1U
+ PD=9.1U
M$12 \$34 \$33 VDDD VDDD pfet_03v3 L=0.28U W=3.9U AS=2.535P AD=2.535P PS=9.1U
+ PD=9.1U
M$13 \$13 \$731 VDDD VDDD pfet_03v3 L=0.28U W=3.9U AS=2.535P AD=2.535P PS=9.1U
+ PD=9.1U
M$14 \$63 \$13 VDDD VDDD pfet_03v3 L=0.28U W=3.9U AS=2.535P AD=2.535P PS=9.1U
+ PD=9.1U
M$15 \$38 \$37 VDDD VDDD pfet_03v3 L=0.28U W=3.9U AS=2.535P AD=2.535P PS=9.1U
+ PD=9.1U
M$16 \$14 \$737 VDDD VDDD pfet_03v3 L=0.28U W=3.9U AS=2.535P AD=2.535P PS=9.1U
+ PD=9.1U
M$17 \$64 \$14 VDDD VDDD pfet_03v3 L=0.28U W=3.9U AS=2.535P AD=2.535P PS=9.1U
+ PD=9.1U
M$18 \$42 \$41 VDDD VDDD pfet_03v3 L=0.28U W=3.9U AS=2.535P AD=2.535P PS=9.1U
+ PD=9.1U
M$19 \$15 \$743 VDDD VDDD pfet_03v3 L=0.28U W=3.9U AS=2.535P AD=2.535P PS=9.1U
+ PD=9.1U
M$20 \$65 \$15 VDDD VDDD pfet_03v3 L=0.28U W=3.9U AS=2.535P AD=2.535P PS=9.1U
+ PD=9.1U
M$21 \$46 \$45 VDDD VDDD pfet_03v3 L=0.28U W=3.9U AS=2.535P AD=2.535P PS=9.1U
+ PD=9.1U
M$22 \$16 \$749 VDDD VDDD pfet_03v3 L=0.28U W=3.9U AS=2.535P AD=2.535P PS=9.1U
+ PD=9.1U
M$23 \$66 \$16 VDDD VDDD pfet_03v3 L=0.28U W=3.9U AS=2.535P AD=2.535P PS=9.1U
+ PD=9.1U
M$24 \$50 \$49 VDDD VDDD pfet_03v3 L=0.28U W=3.9U AS=2.535P AD=2.535P PS=9.1U
+ PD=9.1U
M$25 \$17 \$755 VDDD VDDD pfet_03v3 L=0.28U W=3.9U AS=2.535P AD=2.535P PS=9.1U
+ PD=9.1U
M$26 \$67 \$17 VDDD VDDD pfet_03v3 L=0.28U W=3.9U AS=2.535P AD=2.535P PS=9.1U
+ PD=9.1U
M$27 \$54 \$53 VDDD VDDD pfet_03v3 L=0.28U W=3.9U AS=2.535P AD=2.535P PS=9.1U
+ PD=9.1U
M$28 \$18 \$761 VDDD VDDD pfet_03v3 L=0.28U W=3.9U AS=2.535P AD=2.535P PS=9.1U
+ PD=9.1U
M$29 \$68 \$18 VDDD VDDD pfet_03v3 L=0.28U W=3.9U AS=2.535P AD=2.535P PS=9.1U
+ PD=9.1U
M$30 \$58 \$57 VDDD VDDD pfet_03v3 L=0.28U W=3.9U AS=2.535P AD=2.535P PS=9.1U
+ PD=9.1U
M$31 Bit_10_n \$59 Bit_10 VDDD pfet_03v3 L=0.28U W=3.9U AS=2.535P AD=2.535P
+ PS=9.1U PD=9.1U
M$32 \$21 \$9 Bit_10 VDDD pfet_03v3 L=0.28U W=3.9U AS=2.535P AD=2.535P PS=9.1U
+ PD=9.1U
M$33 Bit_10_n \$9 \$22 VDDD pfet_03v3 L=0.28U W=3.9U AS=2.535P AD=2.535P
+ PS=9.1U PD=9.1U
M$34 Bit_9_n \$60 Bit_9 VDDD pfet_03v3 L=0.28U W=3.9U AS=2.535P AD=2.535P
+ PS=9.1U PD=9.1U
M$35 \$25 \$10 Bit_9 VDDD pfet_03v3 L=0.28U W=3.9U AS=2.535P AD=2.535P PS=9.1U
+ PD=9.1U
M$36 Bit_9_n \$10 \$26 VDDD pfet_03v3 L=0.28U W=3.9U AS=2.535P AD=2.535P
+ PS=9.1U PD=9.1U
M$37 Bit_8_n \$61 Bit_8 VDDD pfet_03v3 L=0.28U W=3.9U AS=2.535P AD=2.535P
+ PS=9.1U PD=9.1U
M$38 \$29 \$11 Bit_8 VDDD pfet_03v3 L=0.28U W=3.9U AS=2.535P AD=2.535P PS=9.1U
+ PD=9.1U
M$39 Bit_8_n \$11 \$30 VDDD pfet_03v3 L=0.28U W=3.9U AS=2.535P AD=2.535P
+ PS=9.1U PD=9.1U
M$40 Bit_7_n \$62 Bit_7 VDDD pfet_03v3 L=0.28U W=3.9U AS=2.535P AD=2.535P
+ PS=9.1U PD=9.1U
M$41 \$33 \$12 Bit_7 VDDD pfet_03v3 L=0.28U W=3.9U AS=2.535P AD=2.535P PS=9.1U
+ PD=9.1U
M$42 Bit_7_n \$12 \$34 VDDD pfet_03v3 L=0.28U W=3.9U AS=2.535P AD=2.535P
+ PS=9.1U PD=9.1U
M$43 \$36 \$63 Bit_6 VDDD pfet_03v3 L=0.28U W=3.9U AS=2.535P AD=2.535P PS=9.1U
+ PD=9.1U
M$44 \$37 \$13 Bit_6 VDDD pfet_03v3 L=0.28U W=3.9U AS=2.535P AD=2.535P PS=9.1U
+ PD=9.1U
M$45 \$36 \$13 \$38 VDDD pfet_03v3 L=0.28U W=3.9U AS=2.535P AD=2.535P PS=9.1U
+ PD=9.1U
M$46 \$40 \$64 Bit_5 VDDD pfet_03v3 L=0.28U W=3.9U AS=2.535P AD=2.535P PS=9.1U
+ PD=9.1U
M$47 \$41 \$14 Bit_5 VDDD pfet_03v3 L=0.28U W=3.9U AS=2.535P AD=2.535P PS=9.1U
+ PD=9.1U
M$48 \$40 \$14 \$42 VDDD pfet_03v3 L=0.28U W=3.9U AS=2.535P AD=2.535P PS=9.1U
+ PD=9.1U
M$49 \$44 \$65 Bit_4 VDDD pfet_03v3 L=0.28U W=3.9U AS=2.535P AD=2.535P PS=9.1U
+ PD=9.1U
M$50 \$45 \$15 Bit_4 VDDD pfet_03v3 L=0.28U W=3.9U AS=2.535P AD=2.535P PS=9.1U
+ PD=9.1U
M$51 \$44 \$15 \$46 VDDD pfet_03v3 L=0.28U W=3.9U AS=2.535P AD=2.535P PS=9.1U
+ PD=9.1U
M$52 \$48 \$66 Bit_3 VDDD pfet_03v3 L=0.28U W=3.9U AS=2.535P AD=2.535P PS=9.1U
+ PD=9.1U
M$53 \$49 \$16 Bit_3 VDDD pfet_03v3 L=0.28U W=3.9U AS=2.535P AD=2.535P PS=9.1U
+ PD=9.1U
M$54 \$48 \$16 \$50 VDDD pfet_03v3 L=0.28U W=3.9U AS=2.535P AD=2.535P PS=9.1U
+ PD=9.1U
M$55 Bit_2_n \$67 Bit_2 VDDD pfet_03v3 L=0.28U W=3.9U AS=2.535P AD=2.535P
+ PS=9.1U PD=9.1U
M$56 \$53 \$17 Bit_2 VDDD pfet_03v3 L=0.28U W=3.9U AS=2.535P AD=2.535P PS=9.1U
+ PD=9.1U
M$57 Bit_2_n \$17 \$54 VDDD pfet_03v3 L=0.28U W=3.9U AS=2.535P AD=2.535P
+ PS=9.1U PD=9.1U
M$58 Bit_1_n \$68 Bit_1 VDDD pfet_03v3 L=0.28U W=3.9U AS=2.535P AD=2.535P
+ PS=9.1U PD=9.1U
M$59 \$57 \$18 Bit_1 VDDD pfet_03v3 L=0.28U W=3.9U AS=2.535P AD=2.535P PS=9.1U
+ PD=9.1U
M$60 Bit_1_n \$18 \$58 VDDD pfet_03v3 L=0.28U W=3.9U AS=2.535P AD=2.535P
+ PS=9.1U PD=9.1U
M$61 \$768 Valid VDDD VDDD pfet_03v3 L=0.28U W=3.9U AS=2.535P AD=2.535P PS=9.1U
+ PD=9.1U
M$62 \$769 \$768 VDDD VDDD pfet_03v3 L=0.28U W=3.9U AS=2.535P AD=2.535P PS=9.1U
+ PD=9.1U
M$63 \$702 \$769 D VDDD pfet_03v3 L=0.28U W=3.9U AS=2.535P AD=2.535P PS=9.1U
+ PD=9.1U
M$64 \$1587 Set VDDD VDDD pfet_03v3 L=0.28U W=3.9U AS=2.535P AD=2.535P PS=9.1U
+ PD=9.1U
M$65 \$703 \$702 \$1587 VDDD pfet_03v3 L=0.28U W=3.9U AS=2.535P AD=2.535P
+ PS=9.1U PD=9.1U
M$66 \$1588 \$703 VDDD VDDD pfet_03v3 L=0.28U W=3.9U AS=2.535P AD=2.535P
+ PS=9.1U PD=9.1U
M$67 \$704 clks \$1588 VDDD pfet_03v3 L=0.28U W=3.9U AS=2.535P AD=2.535P
+ PS=9.1U PD=9.1U
M$68 \$702 \$768 \$704 VDDD pfet_03v3 L=0.28U W=3.9U AS=2.535P AD=2.535P
+ PS=9.1U PD=9.1U
M$69 \$706 \$768 \$703 VDDD pfet_03v3 L=0.28U W=3.9U AS=2.535P AD=2.535P
+ PS=9.1U PD=9.1U
M$70 \$1589 clks VDDD VDDD pfet_03v3 L=0.28U W=3.9U AS=2.535P AD=2.535P PS=9.1U
+ PD=9.1U
M$71 \$707 \$706 \$1589 VDDD pfet_03v3 L=0.28U W=3.9U AS=2.535P AD=2.535P
+ PS=9.1U PD=9.1U
M$72 \$1590 \$707 VDDD VDDD pfet_03v3 L=0.28U W=3.9U AS=2.535P AD=2.535P
+ PS=9.1U PD=9.1U
M$73 \$705 Set \$1590 VDDD pfet_03v3 L=0.28U W=3.9U AS=2.535P AD=2.535P PS=9.1U
+ PD=9.1U
M$74 \$706 \$769 \$705 VDDD pfet_03v3 L=0.28U W=3.9U AS=2.535P AD=2.535P
+ PS=9.1U PD=9.1U
M$75 \$770 \$707 VDDD VDDD pfet_03v3 L=0.28U W=3.9U AS=2.535P AD=2.535P PS=9.1U
+ PD=9.1U
M$76 \$771 Valid VDDD VDDD pfet_03v3 L=0.28U W=3.9U AS=2.535P AD=2.535P PS=9.1U
+ PD=9.1U
M$77 \$772 \$771 VDDD VDDD pfet_03v3 L=0.28U W=3.9U AS=2.535P AD=2.535P PS=9.1U
+ PD=9.1U
M$78 \$708 \$772 \$707 VDDD pfet_03v3 L=0.28U W=3.9U AS=2.535P AD=2.535P
+ PS=9.1U PD=9.1U
M$79 \$1591 Set VDDD VDDD pfet_03v3 L=0.28U W=3.9U AS=2.535P AD=2.535P PS=9.1U
+ PD=9.1U
M$80 \$709 \$708 \$1591 VDDD pfet_03v3 L=0.28U W=3.9U AS=2.535P AD=2.535P
+ PS=9.1U PD=9.1U
M$81 \$1592 \$709 VDDD VDDD pfet_03v3 L=0.28U W=3.9U AS=2.535P AD=2.535P
+ PS=9.1U PD=9.1U
M$82 \$710 clks \$1592 VDDD pfet_03v3 L=0.28U W=3.9U AS=2.535P AD=2.535P
+ PS=9.1U PD=9.1U
M$83 \$708 \$771 \$710 VDDD pfet_03v3 L=0.28U W=3.9U AS=2.535P AD=2.535P
+ PS=9.1U PD=9.1U
M$84 \$712 \$771 \$709 VDDD pfet_03v3 L=0.28U W=3.9U AS=2.535P AD=2.535P
+ PS=9.1U PD=9.1U
M$85 \$1593 clks VDDD VDDD pfet_03v3 L=0.28U W=3.9U AS=2.535P AD=2.535P PS=9.1U
+ PD=9.1U
M$86 \$713 \$712 \$1593 VDDD pfet_03v3 L=0.28U W=3.9U AS=2.535P AD=2.535P
+ PS=9.1U PD=9.1U
M$87 \$1594 \$713 VDDD VDDD pfet_03v3 L=0.28U W=3.9U AS=2.535P AD=2.535P
+ PS=9.1U PD=9.1U
M$88 \$711 Set \$1594 VDDD pfet_03v3 L=0.28U W=3.9U AS=2.535P AD=2.535P PS=9.1U
+ PD=9.1U
M$89 \$712 \$772 \$711 VDDD pfet_03v3 L=0.28U W=3.9U AS=2.535P AD=2.535P
+ PS=9.1U PD=9.1U
M$90 \$773 \$713 VDDD VDDD pfet_03v3 L=0.28U W=3.9U AS=2.535P AD=2.535P PS=9.1U
+ PD=9.1U
M$91 \$774 Valid VDDD VDDD pfet_03v3 L=0.28U W=3.9U AS=2.535P AD=2.535P PS=9.1U
+ PD=9.1U
M$92 \$775 \$774 VDDD VDDD pfet_03v3 L=0.28U W=3.9U AS=2.535P AD=2.535P PS=9.1U
+ PD=9.1U
M$93 \$714 \$775 \$713 VDDD pfet_03v3 L=0.28U W=3.9U AS=2.535P AD=2.535P
+ PS=9.1U PD=9.1U
M$94 \$1595 Set VDDD VDDD pfet_03v3 L=0.28U W=3.9U AS=2.535P AD=2.535P PS=9.1U
+ PD=9.1U
M$95 \$715 \$714 \$1595 VDDD pfet_03v3 L=0.28U W=3.9U AS=2.535P AD=2.535P
+ PS=9.1U PD=9.1U
M$96 \$1596 \$715 VDDD VDDD pfet_03v3 L=0.28U W=3.9U AS=2.535P AD=2.535P
+ PS=9.1U PD=9.1U
M$97 \$716 clks \$1596 VDDD pfet_03v3 L=0.28U W=3.9U AS=2.535P AD=2.535P
+ PS=9.1U PD=9.1U
M$98 \$714 \$774 \$716 VDDD pfet_03v3 L=0.28U W=3.9U AS=2.535P AD=2.535P
+ PS=9.1U PD=9.1U
M$99 \$718 \$774 \$715 VDDD pfet_03v3 L=0.28U W=3.9U AS=2.535P AD=2.535P
+ PS=9.1U PD=9.1U
M$100 \$1597 clks VDDD VDDD pfet_03v3 L=0.28U W=3.9U AS=2.535P AD=2.535P
+ PS=9.1U PD=9.1U
M$101 \$719 \$718 \$1597 VDDD pfet_03v3 L=0.28U W=3.9U AS=2.535P AD=2.535P
+ PS=9.1U PD=9.1U
M$102 \$1598 \$719 VDDD VDDD pfet_03v3 L=0.28U W=3.9U AS=2.535P AD=2.535P
+ PS=9.1U PD=9.1U
M$103 \$717 Set \$1598 VDDD pfet_03v3 L=0.28U W=3.9U AS=2.535P AD=2.535P
+ PS=9.1U PD=9.1U
M$104 \$718 \$775 \$717 VDDD pfet_03v3 L=0.28U W=3.9U AS=2.535P AD=2.535P
+ PS=9.1U PD=9.1U
M$105 \$776 \$719 VDDD VDDD pfet_03v3 L=0.28U W=3.9U AS=2.535P AD=2.535P
+ PS=9.1U PD=9.1U
M$106 \$777 Valid VDDD VDDD pfet_03v3 L=0.28U W=3.9U AS=2.535P AD=2.535P
+ PS=9.1U PD=9.1U
M$107 \$778 \$777 VDDD VDDD pfet_03v3 L=0.28U W=3.9U AS=2.535P AD=2.535P
+ PS=9.1U PD=9.1U
M$108 \$720 \$778 \$719 VDDD pfet_03v3 L=0.28U W=3.9U AS=2.535P AD=2.535P
+ PS=9.1U PD=9.1U
M$109 \$1599 Set VDDD VDDD pfet_03v3 L=0.28U W=3.9U AS=2.535P AD=2.535P PS=9.1U
+ PD=9.1U
M$110 \$721 \$720 \$1599 VDDD pfet_03v3 L=0.28U W=3.9U AS=2.535P AD=2.535P
+ PS=9.1U PD=9.1U
M$111 \$1600 \$721 VDDD VDDD pfet_03v3 L=0.28U W=3.9U AS=2.535P AD=2.535P
+ PS=9.1U PD=9.1U
M$112 \$722 clks \$1600 VDDD pfet_03v3 L=0.28U W=3.9U AS=2.535P AD=2.535P
+ PS=9.1U PD=9.1U
M$113 \$720 \$777 \$722 VDDD pfet_03v3 L=0.28U W=3.9U AS=2.535P AD=2.535P
+ PS=9.1U PD=9.1U
M$114 \$724 \$777 \$721 VDDD pfet_03v3 L=0.28U W=3.9U AS=2.535P AD=2.535P
+ PS=9.1U PD=9.1U
M$115 \$1601 clks VDDD VDDD pfet_03v3 L=0.28U W=3.9U AS=2.535P AD=2.535P
+ PS=9.1U PD=9.1U
M$116 \$725 \$724 \$1601 VDDD pfet_03v3 L=0.28U W=3.9U AS=2.535P AD=2.535P
+ PS=9.1U PD=9.1U
M$117 \$1602 \$725 VDDD VDDD pfet_03v3 L=0.28U W=3.9U AS=2.535P AD=2.535P
+ PS=9.1U PD=9.1U
M$118 \$723 Set \$1602 VDDD pfet_03v3 L=0.28U W=3.9U AS=2.535P AD=2.535P
+ PS=9.1U PD=9.1U
M$119 \$724 \$778 \$723 VDDD pfet_03v3 L=0.28U W=3.9U AS=2.535P AD=2.535P
+ PS=9.1U PD=9.1U
M$120 \$779 \$725 VDDD VDDD pfet_03v3 L=0.28U W=3.9U AS=2.535P AD=2.535P
+ PS=9.1U PD=9.1U
M$121 \$780 Valid VDDD VDDD pfet_03v3 L=0.28U W=3.9U AS=2.535P AD=2.535P
+ PS=9.1U PD=9.1U
M$122 \$781 \$780 VDDD VDDD pfet_03v3 L=0.28U W=3.9U AS=2.535P AD=2.535P
+ PS=9.1U PD=9.1U
M$123 \$726 \$781 \$725 VDDD pfet_03v3 L=0.28U W=3.9U AS=2.535P AD=2.535P
+ PS=9.1U PD=9.1U
M$124 \$1603 Set VDDD VDDD pfet_03v3 L=0.28U W=3.9U AS=2.535P AD=2.535P PS=9.1U
+ PD=9.1U
M$125 \$727 \$726 \$1603 VDDD pfet_03v3 L=0.28U W=3.9U AS=2.535P AD=2.535P
+ PS=9.1U PD=9.1U
M$126 \$1604 \$727 VDDD VDDD pfet_03v3 L=0.28U W=3.9U AS=2.535P AD=2.535P
+ PS=9.1U PD=9.1U
M$127 \$728 clks \$1604 VDDD pfet_03v3 L=0.28U W=3.9U AS=2.535P AD=2.535P
+ PS=9.1U PD=9.1U
M$128 \$726 \$780 \$728 VDDD pfet_03v3 L=0.28U W=3.9U AS=2.535P AD=2.535P
+ PS=9.1U PD=9.1U
M$129 \$730 \$780 \$727 VDDD pfet_03v3 L=0.28U W=3.9U AS=2.535P AD=2.535P
+ PS=9.1U PD=9.1U
M$130 \$1605 clks VDDD VDDD pfet_03v3 L=0.28U W=3.9U AS=2.535P AD=2.535P
+ PS=9.1U PD=9.1U
M$131 \$731 \$730 \$1605 VDDD pfet_03v3 L=0.28U W=3.9U AS=2.535P AD=2.535P
+ PS=9.1U PD=9.1U
M$132 \$1606 \$731 VDDD VDDD pfet_03v3 L=0.28U W=3.9U AS=2.535P AD=2.535P
+ PS=9.1U PD=9.1U
M$133 \$729 Set \$1606 VDDD pfet_03v3 L=0.28U W=3.9U AS=2.535P AD=2.535P
+ PS=9.1U PD=9.1U
M$134 \$730 \$781 \$729 VDDD pfet_03v3 L=0.28U W=3.9U AS=2.535P AD=2.535P
+ PS=9.1U PD=9.1U
M$135 \$782 \$731 VDDD VDDD pfet_03v3 L=0.28U W=3.9U AS=2.535P AD=2.535P
+ PS=9.1U PD=9.1U
M$136 \$783 Valid VDDD VDDD pfet_03v3 L=0.28U W=3.9U AS=2.535P AD=2.535P
+ PS=9.1U PD=9.1U
M$137 \$784 \$783 VDDD VDDD pfet_03v3 L=0.28U W=3.9U AS=2.535P AD=2.535P
+ PS=9.1U PD=9.1U
M$138 \$732 \$784 \$731 VDDD pfet_03v3 L=0.28U W=3.9U AS=2.535P AD=2.535P
+ PS=9.1U PD=9.1U
M$139 \$1607 Set VDDD VDDD pfet_03v3 L=0.28U W=3.9U AS=2.535P AD=2.535P PS=9.1U
+ PD=9.1U
M$140 \$733 \$732 \$1607 VDDD pfet_03v3 L=0.28U W=3.9U AS=2.535P AD=2.535P
+ PS=9.1U PD=9.1U
M$141 \$1608 \$733 VDDD VDDD pfet_03v3 L=0.28U W=3.9U AS=2.535P AD=2.535P
+ PS=9.1U PD=9.1U
M$142 \$734 clks \$1608 VDDD pfet_03v3 L=0.28U W=3.9U AS=2.535P AD=2.535P
+ PS=9.1U PD=9.1U
M$143 \$732 \$783 \$734 VDDD pfet_03v3 L=0.28U W=3.9U AS=2.535P AD=2.535P
+ PS=9.1U PD=9.1U
M$144 \$736 \$783 \$733 VDDD pfet_03v3 L=0.28U W=3.9U AS=2.535P AD=2.535P
+ PS=9.1U PD=9.1U
M$145 \$1609 clks VDDD VDDD pfet_03v3 L=0.28U W=3.9U AS=2.535P AD=2.535P
+ PS=9.1U PD=9.1U
M$146 \$737 \$736 \$1609 VDDD pfet_03v3 L=0.28U W=3.9U AS=2.535P AD=2.535P
+ PS=9.1U PD=9.1U
M$147 \$1610 \$737 VDDD VDDD pfet_03v3 L=0.28U W=3.9U AS=2.535P AD=2.535P
+ PS=9.1U PD=9.1U
M$148 \$735 Set \$1610 VDDD pfet_03v3 L=0.28U W=3.9U AS=2.535P AD=2.535P
+ PS=9.1U PD=9.1U
M$149 \$736 \$784 \$735 VDDD pfet_03v3 L=0.28U W=3.9U AS=2.535P AD=2.535P
+ PS=9.1U PD=9.1U
M$150 \$785 \$737 VDDD VDDD pfet_03v3 L=0.28U W=3.9U AS=2.535P AD=2.535P
+ PS=9.1U PD=9.1U
M$151 \$786 Valid VDDD VDDD pfet_03v3 L=0.28U W=3.9U AS=2.535P AD=2.535P
+ PS=9.1U PD=9.1U
M$152 \$787 \$786 VDDD VDDD pfet_03v3 L=0.28U W=3.9U AS=2.535P AD=2.535P
+ PS=9.1U PD=9.1U
M$153 \$738 \$787 \$737 VDDD pfet_03v3 L=0.28U W=3.9U AS=2.535P AD=2.535P
+ PS=9.1U PD=9.1U
M$154 \$1611 Set VDDD VDDD pfet_03v3 L=0.28U W=3.9U AS=2.535P AD=2.535P PS=9.1U
+ PD=9.1U
M$155 \$739 \$738 \$1611 VDDD pfet_03v3 L=0.28U W=3.9U AS=2.535P AD=2.535P
+ PS=9.1U PD=9.1U
M$156 \$1612 \$739 VDDD VDDD pfet_03v3 L=0.28U W=3.9U AS=2.535P AD=2.535P
+ PS=9.1U PD=9.1U
M$157 \$740 clks \$1612 VDDD pfet_03v3 L=0.28U W=3.9U AS=2.535P AD=2.535P
+ PS=9.1U PD=9.1U
M$158 \$738 \$786 \$740 VDDD pfet_03v3 L=0.28U W=3.9U AS=2.535P AD=2.535P
+ PS=9.1U PD=9.1U
M$159 \$742 \$786 \$739 VDDD pfet_03v3 L=0.28U W=3.9U AS=2.535P AD=2.535P
+ PS=9.1U PD=9.1U
M$160 \$1613 clks VDDD VDDD pfet_03v3 L=0.28U W=3.9U AS=2.535P AD=2.535P
+ PS=9.1U PD=9.1U
M$161 \$743 \$742 \$1613 VDDD pfet_03v3 L=0.28U W=3.9U AS=2.535P AD=2.535P
+ PS=9.1U PD=9.1U
M$162 \$1614 \$743 VDDD VDDD pfet_03v3 L=0.28U W=3.9U AS=2.535P AD=2.535P
+ PS=9.1U PD=9.1U
M$163 \$741 Set \$1614 VDDD pfet_03v3 L=0.28U W=3.9U AS=2.535P AD=2.535P
+ PS=9.1U PD=9.1U
M$164 \$742 \$787 \$741 VDDD pfet_03v3 L=0.28U W=3.9U AS=2.535P AD=2.535P
+ PS=9.1U PD=9.1U
M$165 \$788 \$743 VDDD VDDD pfet_03v3 L=0.28U W=3.9U AS=2.535P AD=2.535P
+ PS=9.1U PD=9.1U
M$166 \$789 Valid VDDD VDDD pfet_03v3 L=0.28U W=3.9U AS=2.535P AD=2.535P
+ PS=9.1U PD=9.1U
M$167 \$790 \$789 VDDD VDDD pfet_03v3 L=0.28U W=3.9U AS=2.535P AD=2.535P
+ PS=9.1U PD=9.1U
M$168 \$744 \$790 \$743 VDDD pfet_03v3 L=0.28U W=3.9U AS=2.535P AD=2.535P
+ PS=9.1U PD=9.1U
M$169 \$1615 Set VDDD VDDD pfet_03v3 L=0.28U W=3.9U AS=2.535P AD=2.535P PS=9.1U
+ PD=9.1U
M$170 \$745 \$744 \$1615 VDDD pfet_03v3 L=0.28U W=3.9U AS=2.535P AD=2.535P
+ PS=9.1U PD=9.1U
M$171 \$1616 \$745 VDDD VDDD pfet_03v3 L=0.28U W=3.9U AS=2.535P AD=2.535P
+ PS=9.1U PD=9.1U
M$172 \$746 clks \$1616 VDDD pfet_03v3 L=0.28U W=3.9U AS=2.535P AD=2.535P
+ PS=9.1U PD=9.1U
M$173 \$744 \$789 \$746 VDDD pfet_03v3 L=0.28U W=3.9U AS=2.535P AD=2.535P
+ PS=9.1U PD=9.1U
M$174 \$748 \$789 \$745 VDDD pfet_03v3 L=0.28U W=3.9U AS=2.535P AD=2.535P
+ PS=9.1U PD=9.1U
M$175 \$1617 clks VDDD VDDD pfet_03v3 L=0.28U W=3.9U AS=2.535P AD=2.535P
+ PS=9.1U PD=9.1U
M$176 \$749 \$748 \$1617 VDDD pfet_03v3 L=0.28U W=3.9U AS=2.535P AD=2.535P
+ PS=9.1U PD=9.1U
M$177 \$1618 \$749 VDDD VDDD pfet_03v3 L=0.28U W=3.9U AS=2.535P AD=2.535P
+ PS=9.1U PD=9.1U
M$178 \$747 Set \$1618 VDDD pfet_03v3 L=0.28U W=3.9U AS=2.535P AD=2.535P
+ PS=9.1U PD=9.1U
M$179 \$748 \$790 \$747 VDDD pfet_03v3 L=0.28U W=3.9U AS=2.535P AD=2.535P
+ PS=9.1U PD=9.1U
M$180 \$791 \$749 VDDD VDDD pfet_03v3 L=0.28U W=3.9U AS=2.535P AD=2.535P
+ PS=9.1U PD=9.1U
M$181 \$792 Valid VDDD VDDD pfet_03v3 L=0.28U W=3.9U AS=2.535P AD=2.535P
+ PS=9.1U PD=9.1U
M$182 \$793 \$792 VDDD VDDD pfet_03v3 L=0.28U W=3.9U AS=2.535P AD=2.535P
+ PS=9.1U PD=9.1U
M$183 \$750 \$793 \$749 VDDD pfet_03v3 L=0.28U W=3.9U AS=2.535P AD=2.535P
+ PS=9.1U PD=9.1U
M$184 \$1619 Set VDDD VDDD pfet_03v3 L=0.28U W=3.9U AS=2.535P AD=2.535P PS=9.1U
+ PD=9.1U
M$185 \$751 \$750 \$1619 VDDD pfet_03v3 L=0.28U W=3.9U AS=2.535P AD=2.535P
+ PS=9.1U PD=9.1U
M$186 \$1620 \$751 VDDD VDDD pfet_03v3 L=0.28U W=3.9U AS=2.535P AD=2.535P
+ PS=9.1U PD=9.1U
M$187 \$752 clks \$1620 VDDD pfet_03v3 L=0.28U W=3.9U AS=2.535P AD=2.535P
+ PS=9.1U PD=9.1U
M$188 \$750 \$792 \$752 VDDD pfet_03v3 L=0.28U W=3.9U AS=2.535P AD=2.535P
+ PS=9.1U PD=9.1U
M$189 \$754 \$792 \$751 VDDD pfet_03v3 L=0.28U W=3.9U AS=2.535P AD=2.535P
+ PS=9.1U PD=9.1U
M$190 \$1621 clks VDDD VDDD pfet_03v3 L=0.28U W=3.9U AS=2.535P AD=2.535P
+ PS=9.1U PD=9.1U
M$191 \$755 \$754 \$1621 VDDD pfet_03v3 L=0.28U W=3.9U AS=2.535P AD=2.535P
+ PS=9.1U PD=9.1U
M$192 \$1622 \$755 VDDD VDDD pfet_03v3 L=0.28U W=3.9U AS=2.535P AD=2.535P
+ PS=9.1U PD=9.1U
M$193 \$753 Set \$1622 VDDD pfet_03v3 L=0.28U W=3.9U AS=2.535P AD=2.535P
+ PS=9.1U PD=9.1U
M$194 \$754 \$793 \$753 VDDD pfet_03v3 L=0.28U W=3.9U AS=2.535P AD=2.535P
+ PS=9.1U PD=9.1U
M$195 \$794 \$755 VDDD VDDD pfet_03v3 L=0.28U W=3.9U AS=2.535P AD=2.535P
+ PS=9.1U PD=9.1U
M$196 \$795 Valid VDDD VDDD pfet_03v3 L=0.28U W=3.9U AS=2.535P AD=2.535P
+ PS=9.1U PD=9.1U
M$197 \$796 \$795 VDDD VDDD pfet_03v3 L=0.28U W=3.9U AS=2.535P AD=2.535P
+ PS=9.1U PD=9.1U
M$198 \$756 \$796 \$755 VDDD pfet_03v3 L=0.28U W=3.9U AS=2.535P AD=2.535P
+ PS=9.1U PD=9.1U
M$199 \$1623 Set VDDD VDDD pfet_03v3 L=0.28U W=3.9U AS=2.535P AD=2.535P PS=9.1U
+ PD=9.1U
M$200 \$757 \$756 \$1623 VDDD pfet_03v3 L=0.28U W=3.9U AS=2.535P AD=2.535P
+ PS=9.1U PD=9.1U
M$201 \$1624 \$757 VDDD VDDD pfet_03v3 L=0.28U W=3.9U AS=2.535P AD=2.535P
+ PS=9.1U PD=9.1U
M$202 \$758 clks \$1624 VDDD pfet_03v3 L=0.28U W=3.9U AS=2.535P AD=2.535P
+ PS=9.1U PD=9.1U
M$203 \$756 \$795 \$758 VDDD pfet_03v3 L=0.28U W=3.9U AS=2.535P AD=2.535P
+ PS=9.1U PD=9.1U
M$204 \$760 \$795 \$757 VDDD pfet_03v3 L=0.28U W=3.9U AS=2.535P AD=2.535P
+ PS=9.1U PD=9.1U
M$205 \$1625 clks VDDD VDDD pfet_03v3 L=0.28U W=3.9U AS=2.535P AD=2.535P
+ PS=9.1U PD=9.1U
M$206 \$761 \$760 \$1625 VDDD pfet_03v3 L=0.28U W=3.9U AS=2.535P AD=2.535P
+ PS=9.1U PD=9.1U
M$207 \$1626 \$761 VDDD VDDD pfet_03v3 L=0.28U W=3.9U AS=2.535P AD=2.535P
+ PS=9.1U PD=9.1U
M$208 \$759 Set \$1626 VDDD pfet_03v3 L=0.28U W=3.9U AS=2.535P AD=2.535P
+ PS=9.1U PD=9.1U
M$209 \$760 \$796 \$759 VDDD pfet_03v3 L=0.28U W=3.9U AS=2.535P AD=2.535P
+ PS=9.1U PD=9.1U
M$210 \$797 \$761 VDDD VDDD pfet_03v3 L=0.28U W=3.9U AS=2.535P AD=2.535P
+ PS=9.1U PD=9.1U
M$211 \$798 Valid VDDD VDDD pfet_03v3 L=0.28U W=3.9U AS=2.535P AD=2.535P
+ PS=9.1U PD=9.1U
M$212 \$799 \$798 VDDD VDDD pfet_03v3 L=0.28U W=3.9U AS=2.535P AD=2.535P
+ PS=9.1U PD=9.1U
M$213 \$762 \$799 \$761 VDDD pfet_03v3 L=0.28U W=3.9U AS=2.535P AD=2.535P
+ PS=9.1U PD=9.1U
M$214 \$1627 Set VDDD VDDD pfet_03v3 L=0.28U W=3.9U AS=2.535P AD=2.535P PS=9.1U
+ PD=9.1U
M$215 \$763 \$762 \$1627 VDDD pfet_03v3 L=0.28U W=3.9U AS=2.535P AD=2.535P
+ PS=9.1U PD=9.1U
M$216 \$1628 \$763 VDDD VDDD pfet_03v3 L=0.28U W=3.9U AS=2.535P AD=2.535P
+ PS=9.1U PD=9.1U
M$217 \$764 clks \$1628 VDDD pfet_03v3 L=0.28U W=3.9U AS=2.535P AD=2.535P
+ PS=9.1U PD=9.1U
M$218 \$762 \$798 \$764 VDDD pfet_03v3 L=0.28U W=3.9U AS=2.535P AD=2.535P
+ PS=9.1U PD=9.1U
M$219 \$767 \$798 \$763 VDDD pfet_03v3 L=0.28U W=3.9U AS=2.535P AD=2.535P
+ PS=9.1U PD=9.1U
M$220 \$1629 clks VDDD VDDD pfet_03v3 L=0.28U W=3.9U AS=2.535P AD=2.535P
+ PS=9.1U PD=9.1U
M$221 CK_1 \$767 \$1629 VDDD pfet_03v3 L=0.28U W=3.9U AS=2.535P AD=2.535P
+ PS=9.1U PD=9.1U
M$222 \$1630 CK_1 VDDD VDDD pfet_03v3 L=0.28U W=3.9U AS=2.535P AD=2.535P
+ PS=9.1U PD=9.1U
M$223 \$766 Set \$1630 VDDD pfet_03v3 L=0.28U W=3.9U AS=2.535P AD=2.535P
+ PS=9.1U PD=9.1U
M$224 \$767 \$799 \$766 VDDD pfet_03v3 L=0.28U W=3.9U AS=2.535P AD=2.535P
+ PS=9.1U PD=9.1U
M$225 \$800 CK_1 VDDD VDDD pfet_03v3 L=0.28U W=3.9U AS=2.535P AD=2.535P PS=9.1U
+ PD=9.1U
M$226 \$2211 \$2417 \$2215 VDDD pfet_03v3 L=0.28U W=3.9U AS=2.535P AD=2.535P
+ PS=9.1U PD=9.1U
M$227 VDDD \$2215 \$3049 VDDD pfet_03v3 L=0.28U W=3.9U AS=2.535P AD=2.535P
+ PS=9.1U PD=9.1U
M$228 \$2257 clks VDDD VDDD pfet_03v3 L=0.28U W=3.9U AS=2.535P AD=2.535P
+ PS=9.1U PD=9.1U
M$229 \$2258 \$2257 VDDD VDDD pfet_03v3 L=0.28U W=3.9U AS=2.535P AD=2.535P
+ PS=9.1U PD=9.1U
M$230 \$3032 \$3051 \$2987 VDDD pfet_03v3 L=0.28U W=3.9U AS=2.535P AD=2.535P
+ PS=9.1U PD=9.1U
M$231 \$3563 Set \$3032 VDDD pfet_03v3 L=0.28U W=3.9U AS=2.535P AD=2.535P
+ PS=9.1U PD=9.1U
M$232 \$2216 \$2258 \$2215 VDDD pfet_03v3 L=0.28U W=3.9U AS=2.535P AD=2.535P
+ PS=9.1U PD=9.1U
M$233 VDDD \$2215 \$3563 VDDD pfet_03v3 L=0.28U W=3.9U AS=2.535P AD=2.535P
+ PS=9.1U PD=9.1U
M$234 \$2632 Set VDDD VDDD pfet_03v3 L=0.28U W=3.9U AS=2.535P AD=2.535P PS=9.1U
+ PD=9.1U
M$235 \$2217 \$2216 \$2632 VDDD pfet_03v3 L=0.28U W=3.9U AS=2.535P AD=2.535P
+ PS=9.1U PD=9.1U
M$236 \$3564 \$2987 \$2215 VDDD pfet_03v3 L=0.28U W=3.9U AS=2.535P AD=2.535P
+ PS=9.1U PD=9.1U
M$237 VDDD Reset \$3564 VDDD pfet_03v3 L=0.28U W=3.9U AS=2.535P AD=2.535P
+ PS=9.1U PD=9.1U
M$238 \$2633 \$2217 VDDD VDDD pfet_03v3 L=0.28U W=3.9U AS=2.535P AD=2.535P
+ PS=9.1U PD=9.1U
M$239 \$2218 Reset \$2633 VDDD pfet_03v3 L=0.28U W=3.9U AS=2.535P AD=2.535P
+ PS=9.1U PD=9.1U
M$240 \$3033 \$3050 \$2987 VDDD pfet_03v3 L=0.28U W=3.9U AS=2.535P AD=2.535P
+ PS=9.1U PD=9.1U
M$241 \$2216 \$2257 \$2218 VDDD pfet_03v3 L=0.28U W=3.9U AS=2.535P AD=2.535P
+ PS=9.1U PD=9.1U
M$242 \$3034 \$3050 \$3022 VDDD pfet_03v3 L=0.28U W=3.9U AS=2.535P AD=2.535P
+ PS=9.1U PD=9.1U
M$243 \$2221 \$2257 \$2217 VDDD pfet_03v3 L=0.28U W=3.9U AS=2.535P AD=2.535P
+ PS=9.1U PD=9.1U
M$244 \$3565 Reset \$3034 VDDD pfet_03v3 L=0.28U W=3.9U AS=2.535P AD=2.535P
+ PS=9.1U PD=9.1U
M$245 VDDD \$3033 \$3565 VDDD pfet_03v3 L=0.28U W=3.9U AS=2.535P AD=2.535P
+ PS=9.1U PD=9.1U
M$246 \$2634 Reset VDDD VDDD pfet_03v3 L=0.28U W=3.9U AS=2.535P AD=2.535P
+ PS=9.1U PD=9.1U
M$247 \$2219 \$2221 \$2634 VDDD pfet_03v3 L=0.28U W=3.9U AS=2.535P AD=2.535P
+ PS=9.1U PD=9.1U
M$248 \$3566 \$3022 \$3033 VDDD pfet_03v3 L=0.28U W=3.9U AS=2.535P AD=2.535P
+ PS=9.1U PD=9.1U
M$249 VDDD Set \$3566 VDDD pfet_03v3 L=0.28U W=3.9U AS=2.535P AD=2.535P PS=9.1U
+ PD=9.1U
M$250 \$2635 \$2219 VDDD VDDD pfet_03v3 L=0.28U W=3.9U AS=2.535P AD=2.535P
+ PS=9.1U PD=9.1U
M$251 vocp \$3051 \$3022 VDDD pfet_03v3 L=0.28U W=3.9U AS=2.535P AD=2.535P
+ PS=9.1U PD=9.1U
M$252 \$2220 Set \$2635 VDDD pfet_03v3 L=0.28U W=3.9U AS=2.535P AD=2.535P
+ PS=9.1U PD=9.1U
M$253 \$2221 \$2258 \$2220 VDDD pfet_03v3 L=0.28U W=3.9U AS=2.535P AD=2.535P
+ PS=9.1U PD=9.1U
M$254 VDDD \$3050 \$3051 VDDD pfet_03v3 L=0.28U W=3.9U AS=2.535P AD=2.535P
+ PS=9.1U PD=9.1U
M$255 VDDD \$2256 \$3050 VDDD pfet_03v3 L=0.28U W=3.9U AS=2.535P AD=2.535P
+ PS=9.1U PD=9.1U
M$256 \$2259 \$2219 VDDD VDDD pfet_03v3 L=0.28U W=3.9U AS=2.535P AD=2.535P
+ PS=9.1U PD=9.1U
M$257 VDDD \$2417 \$2256 VDDD pfet_03v3 L=0.28U W=3.9U AS=2.535P AD=2.535P
+ PS=9.1U PD=9.1U
M$258 VDDD CK_1 \$2417 VDDD pfet_03v3 L=0.28U W=3.9U AS=2.535P AD=2.535P
+ PS=9.1U PD=9.1U
M$259 \$2222 \$2431 \$2223 VDDD pfet_03v3 L=0.28U W=3.9U AS=2.535P AD=2.535P
+ PS=9.1U PD=9.1U
M$260 VDDD \$2223 \$3053 VDDD pfet_03v3 L=0.28U W=3.9U AS=2.535P AD=2.535P
+ PS=9.1U PD=9.1U
M$261 \$2261 clks VDDD VDDD pfet_03v3 L=0.28U W=3.9U AS=2.535P AD=2.535P
+ PS=9.1U PD=9.1U
M$262 \$2262 \$2261 VDDD VDDD pfet_03v3 L=0.28U W=3.9U AS=2.535P AD=2.535P
+ PS=9.1U PD=9.1U
M$263 \$3035 \$3055 \$2988 VDDD pfet_03v3 L=0.28U W=3.9U AS=2.535P AD=2.535P
+ PS=9.1U PD=9.1U
M$264 \$3567 Set \$3035 VDDD pfet_03v3 L=0.28U W=3.9U AS=2.535P AD=2.535P
+ PS=9.1U PD=9.1U
M$265 \$2224 \$2262 \$2223 VDDD pfet_03v3 L=0.28U W=3.9U AS=2.535P AD=2.535P
+ PS=9.1U PD=9.1U
M$266 VDDD \$2223 \$3567 VDDD pfet_03v3 L=0.28U W=3.9U AS=2.535P AD=2.535P
+ PS=9.1U PD=9.1U
M$267 \$2636 Set VDDD VDDD pfet_03v3 L=0.28U W=3.9U AS=2.535P AD=2.535P PS=9.1U
+ PD=9.1U
M$268 \$2225 \$2224 \$2636 VDDD pfet_03v3 L=0.28U W=3.9U AS=2.535P AD=2.535P
+ PS=9.1U PD=9.1U
M$269 \$3568 \$2988 \$2223 VDDD pfet_03v3 L=0.28U W=3.9U AS=2.535P AD=2.535P
+ PS=9.1U PD=9.1U
M$270 VDDD Reset \$3568 VDDD pfet_03v3 L=0.28U W=3.9U AS=2.535P AD=2.535P
+ PS=9.1U PD=9.1U
M$271 \$2637 \$2225 VDDD VDDD pfet_03v3 L=0.28U W=3.9U AS=2.535P AD=2.535P
+ PS=9.1U PD=9.1U
M$272 \$2226 Reset \$2637 VDDD pfet_03v3 L=0.28U W=3.9U AS=2.535P AD=2.535P
+ PS=9.1U PD=9.1U
M$273 \$3036 \$3054 \$2988 VDDD pfet_03v3 L=0.28U W=3.9U AS=2.535P AD=2.535P
+ PS=9.1U PD=9.1U
M$274 \$2224 \$2261 \$2226 VDDD pfet_03v3 L=0.28U W=3.9U AS=2.535P AD=2.535P
+ PS=9.1U PD=9.1U
M$275 \$3037 \$3054 \$3023 VDDD pfet_03v3 L=0.28U W=3.9U AS=2.535P AD=2.535P
+ PS=9.1U PD=9.1U
M$276 \$2229 \$2261 \$2225 VDDD pfet_03v3 L=0.28U W=3.9U AS=2.535P AD=2.535P
+ PS=9.1U PD=9.1U
M$277 \$3569 Reset \$3037 VDDD pfet_03v3 L=0.28U W=3.9U AS=2.535P AD=2.535P
+ PS=9.1U PD=9.1U
M$278 VDDD \$3036 \$3569 VDDD pfet_03v3 L=0.28U W=3.9U AS=2.535P AD=2.535P
+ PS=9.1U PD=9.1U
M$279 \$2638 Reset VDDD VDDD pfet_03v3 L=0.28U W=3.9U AS=2.535P AD=2.535P
+ PS=9.1U PD=9.1U
M$280 \$2227 \$2229 \$2638 VDDD pfet_03v3 L=0.28U W=3.9U AS=2.535P AD=2.535P
+ PS=9.1U PD=9.1U
M$281 \$3570 \$3023 \$3036 VDDD pfet_03v3 L=0.28U W=3.9U AS=2.535P AD=2.535P
+ PS=9.1U PD=9.1U
M$282 VDDD Set \$3570 VDDD pfet_03v3 L=0.28U W=3.9U AS=2.535P AD=2.535P PS=9.1U
+ PD=9.1U
M$283 \$2639 \$2227 VDDD VDDD pfet_03v3 L=0.28U W=3.9U AS=2.535P AD=2.535P
+ PS=9.1U PD=9.1U
M$284 vocp \$3055 \$3023 VDDD pfet_03v3 L=0.28U W=3.9U AS=2.535P AD=2.535P
+ PS=9.1U PD=9.1U
M$285 \$2228 Set \$2639 VDDD pfet_03v3 L=0.28U W=3.9U AS=2.535P AD=2.535P
+ PS=9.1U PD=9.1U
M$286 \$2229 \$2262 \$2228 VDDD pfet_03v3 L=0.28U W=3.9U AS=2.535P AD=2.535P
+ PS=9.1U PD=9.1U
M$287 VDDD \$3054 \$3055 VDDD pfet_03v3 L=0.28U W=3.9U AS=2.535P AD=2.535P
+ PS=9.1U PD=9.1U
M$288 VDDD \$2260 \$3054 VDDD pfet_03v3 L=0.28U W=3.9U AS=2.535P AD=2.535P
+ PS=9.1U PD=9.1U
M$289 \$2263 \$2227 VDDD VDDD pfet_03v3 L=0.28U W=3.9U AS=2.535P AD=2.535P
+ PS=9.1U PD=9.1U
M$290 VDDD \$2431 \$2260 VDDD pfet_03v3 L=0.28U W=3.9U AS=2.535P AD=2.535P
+ PS=9.1U PD=9.1U
M$291 VDDD \$761 \$2431 VDDD pfet_03v3 L=0.28U W=3.9U AS=2.535P AD=2.535P
+ PS=9.1U PD=9.1U
M$292 \$2212 \$2444 \$2230 VDDD pfet_03v3 L=0.28U W=3.9U AS=2.535P AD=2.535P
+ PS=9.1U PD=9.1U
M$293 VDDD \$2230 \$3057 VDDD pfet_03v3 L=0.28U W=3.9U AS=2.535P AD=2.535P
+ PS=9.1U PD=9.1U
M$294 \$2265 clks VDDD VDDD pfet_03v3 L=0.28U W=3.9U AS=2.535P AD=2.535P
+ PS=9.1U PD=9.1U
M$295 \$2266 \$2265 VDDD VDDD pfet_03v3 L=0.28U W=3.9U AS=2.535P AD=2.535P
+ PS=9.1U PD=9.1U
M$296 \$3038 \$3059 \$2989 VDDD pfet_03v3 L=0.28U W=3.9U AS=2.535P AD=2.535P
+ PS=9.1U PD=9.1U
M$297 \$3571 Set \$3038 VDDD pfet_03v3 L=0.28U W=3.9U AS=2.535P AD=2.535P
+ PS=9.1U PD=9.1U
M$298 \$2231 \$2266 \$2230 VDDD pfet_03v3 L=0.28U W=3.9U AS=2.535P AD=2.535P
+ PS=9.1U PD=9.1U
M$299 VDDD \$2230 \$3571 VDDD pfet_03v3 L=0.28U W=3.9U AS=2.535P AD=2.535P
+ PS=9.1U PD=9.1U
M$300 \$2640 Set VDDD VDDD pfet_03v3 L=0.28U W=3.9U AS=2.535P AD=2.535P PS=9.1U
+ PD=9.1U
M$301 \$2232 \$2231 \$2640 VDDD pfet_03v3 L=0.28U W=3.9U AS=2.535P AD=2.535P
+ PS=9.1U PD=9.1U
M$302 \$3572 \$2989 \$2230 VDDD pfet_03v3 L=0.28U W=3.9U AS=2.535P AD=2.535P
+ PS=9.1U PD=9.1U
M$303 VDDD Reset \$3572 VDDD pfet_03v3 L=0.28U W=3.9U AS=2.535P AD=2.535P
+ PS=9.1U PD=9.1U
M$304 \$2641 \$2232 VDDD VDDD pfet_03v3 L=0.28U W=3.9U AS=2.535P AD=2.535P
+ PS=9.1U PD=9.1U
M$305 \$2233 Reset \$2641 VDDD pfet_03v3 L=0.28U W=3.9U AS=2.535P AD=2.535P
+ PS=9.1U PD=9.1U
M$306 \$3039 \$3058 \$2989 VDDD pfet_03v3 L=0.28U W=3.9U AS=2.535P AD=2.535P
+ PS=9.1U PD=9.1U
M$307 \$2231 \$2265 \$2233 VDDD pfet_03v3 L=0.28U W=3.9U AS=2.535P AD=2.535P
+ PS=9.1U PD=9.1U
M$308 \$3040 \$3058 \$3024 VDDD pfet_03v3 L=0.28U W=3.9U AS=2.535P AD=2.535P
+ PS=9.1U PD=9.1U
M$309 \$2236 \$2265 \$2232 VDDD pfet_03v3 L=0.28U W=3.9U AS=2.535P AD=2.535P
+ PS=9.1U PD=9.1U
M$310 \$3573 Reset \$3040 VDDD pfet_03v3 L=0.28U W=3.9U AS=2.535P AD=2.535P
+ PS=9.1U PD=9.1U
M$311 VDDD \$3039 \$3573 VDDD pfet_03v3 L=0.28U W=3.9U AS=2.535P AD=2.535P
+ PS=9.1U PD=9.1U
M$312 \$2642 Reset VDDD VDDD pfet_03v3 L=0.28U W=3.9U AS=2.535P AD=2.535P
+ PS=9.1U PD=9.1U
M$313 \$2234 \$2236 \$2642 VDDD pfet_03v3 L=0.28U W=3.9U AS=2.535P AD=2.535P
+ PS=9.1U PD=9.1U
M$314 \$3574 \$3024 \$3039 VDDD pfet_03v3 L=0.28U W=3.9U AS=2.535P AD=2.535P
+ PS=9.1U PD=9.1U
M$315 VDDD Set \$3574 VDDD pfet_03v3 L=0.28U W=3.9U AS=2.535P AD=2.535P PS=9.1U
+ PD=9.1U
M$316 \$2643 \$2234 VDDD VDDD pfet_03v3 L=0.28U W=3.9U AS=2.535P AD=2.535P
+ PS=9.1U PD=9.1U
M$317 vocp \$3059 \$3024 VDDD pfet_03v3 L=0.28U W=3.9U AS=2.535P AD=2.535P
+ PS=9.1U PD=9.1U
M$318 \$2235 Set \$2643 VDDD pfet_03v3 L=0.28U W=3.9U AS=2.535P AD=2.535P
+ PS=9.1U PD=9.1U
M$319 \$2236 \$2266 \$2235 VDDD pfet_03v3 L=0.28U W=3.9U AS=2.535P AD=2.535P
+ PS=9.1U PD=9.1U
M$320 VDDD \$3058 \$3059 VDDD pfet_03v3 L=0.28U W=3.9U AS=2.535P AD=2.535P
+ PS=9.1U PD=9.1U
M$321 VDDD \$2264 \$3058 VDDD pfet_03v3 L=0.28U W=3.9U AS=2.535P AD=2.535P
+ PS=9.1U PD=9.1U
M$322 \$2267 \$2234 VDDD VDDD pfet_03v3 L=0.28U W=3.9U AS=2.535P AD=2.535P
+ PS=9.1U PD=9.1U
M$323 VDDD \$2444 \$2264 VDDD pfet_03v3 L=0.28U W=3.9U AS=2.535P AD=2.535P
+ PS=9.1U PD=9.1U
M$324 VDDD \$755 \$2444 VDDD pfet_03v3 L=0.28U W=3.9U AS=2.535P AD=2.535P
+ PS=9.1U PD=9.1U