* Extracted by KLayout with GF180MCU LVS runset on : 29/04/2024 18:51

.SUBCKT SAR_logic_dac VSSD VDP VDN vocp D Valid VDDD Set CK_1 clks Reset VCM
M$1 \$8787 \$9466 VDDD VDDD pfet_03v3 L=0.28U W=3.9U AS=2.535P AD=2.535P
+ PS=9.1U PD=9.1U
M$2 \$8818 \$8787 VDDD VDDD pfet_03v3 L=0.28U W=3.9U AS=2.535P AD=2.535P
+ PS=9.1U PD=9.1U
M$3 \$8799 \$8798 VDDD VDDD pfet_03v3 L=0.28U W=3.9U AS=2.535P AD=2.535P
+ PS=9.1U PD=9.1U
M$4 \$8788 \$9472 VDDD VDDD pfet_03v3 L=0.28U W=3.9U AS=2.535P AD=2.535P
+ PS=9.1U PD=9.1U
M$5 \$8819 \$8788 VDDD VDDD pfet_03v3 L=0.28U W=3.9U AS=2.535P AD=2.535P
+ PS=9.1U PD=9.1U
M$6 \$8801 \$8800 VDDD VDDD pfet_03v3 L=0.28U W=3.9U AS=2.535P AD=2.535P
+ PS=9.1U PD=9.1U
M$7 \$8789 \$9478 VDDD VDDD pfet_03v3 L=0.28U W=3.9U AS=2.535P AD=2.535P
+ PS=9.1U PD=9.1U
M$8 \$8820 \$8789 VDDD VDDD pfet_03v3 L=0.28U W=3.9U AS=2.535P AD=2.535P
+ PS=9.1U PD=9.1U
M$9 \$8803 \$8802 VDDD VDDD pfet_03v3 L=0.28U W=3.9U AS=2.535P AD=2.535P
+ PS=9.1U PD=9.1U
M$10 \$8790 \$9484 VDDD VDDD pfet_03v3 L=0.28U W=3.9U AS=2.535P AD=2.535P
+ PS=9.1U PD=9.1U
M$11 \$8821 \$8790 VDDD VDDD pfet_03v3 L=0.28U W=3.9U AS=2.535P AD=2.535P
+ PS=9.1U PD=9.1U
M$12 \$8805 \$8804 VDDD VDDD pfet_03v3 L=0.28U W=3.9U AS=2.535P AD=2.535P
+ PS=9.1U PD=9.1U
M$13 \$8791 \$9490 VDDD VDDD pfet_03v3 L=0.28U W=3.9U AS=2.535P AD=2.535P
+ PS=9.1U PD=9.1U
M$14 \$8822 \$8791 VDDD VDDD pfet_03v3 L=0.28U W=3.9U AS=2.535P AD=2.535P
+ PS=9.1U PD=9.1U
M$15 \$8807 \$8806 VDDD VDDD pfet_03v3 L=0.28U W=3.9U AS=2.535P AD=2.535P
+ PS=9.1U PD=9.1U
M$16 \$8792 \$9496 VDDD VDDD pfet_03v3 L=0.28U W=3.9U AS=2.535P AD=2.535P
+ PS=9.1U PD=9.1U
M$17 \$8823 \$8792 VDDD VDDD pfet_03v3 L=0.28U W=3.9U AS=2.535P AD=2.535P
+ PS=9.1U PD=9.1U
M$18 \$8809 \$8808 VDDD VDDD pfet_03v3 L=0.28U W=3.9U AS=2.535P AD=2.535P
+ PS=9.1U PD=9.1U
M$19 \$8793 \$9502 VDDD VDDD pfet_03v3 L=0.28U W=3.9U AS=2.535P AD=2.535P
+ PS=9.1U PD=9.1U
M$20 \$8824 \$8793 VDDD VDDD pfet_03v3 L=0.28U W=3.9U AS=2.535P AD=2.535P
+ PS=9.1U PD=9.1U
M$21 \$8811 \$8810 VDDD VDDD pfet_03v3 L=0.28U W=3.9U AS=2.535P AD=2.535P
+ PS=9.1U PD=9.1U
M$22 \$8794 \$9508 VDDD VDDD pfet_03v3 L=0.28U W=3.9U AS=2.535P AD=2.535P
+ PS=9.1U PD=9.1U
M$23 \$8825 \$8794 VDDD VDDD pfet_03v3 L=0.28U W=3.9U AS=2.535P AD=2.535P
+ PS=9.1U PD=9.1U
M$24 \$8813 \$8812 VDDD VDDD pfet_03v3 L=0.28U W=3.9U AS=2.535P AD=2.535P
+ PS=9.1U PD=9.1U
M$25 \$8795 \$9514 VDDD VDDD pfet_03v3 L=0.28U W=3.9U AS=2.535P AD=2.535P
+ PS=9.1U PD=9.1U
M$26 \$8826 \$8795 VDDD VDDD pfet_03v3 L=0.28U W=3.9U AS=2.535P AD=2.535P
+ PS=9.1U PD=9.1U
M$27 \$8815 \$8814 VDDD VDDD pfet_03v3 L=0.28U W=3.9U AS=2.535P AD=2.535P
+ PS=9.1U PD=9.1U
M$28 \$8796 \$9520 VDDD VDDD pfet_03v3 L=0.28U W=3.9U AS=2.535P AD=2.535P
+ PS=9.1U PD=9.1U
M$29 \$8827 \$8796 VDDD VDDD pfet_03v3 L=0.28U W=3.9U AS=2.535P AD=2.535P
+ PS=9.1U PD=9.1U
M$30 \$8817 \$8816 VDDD VDDD pfet_03v3 L=0.28U W=3.9U AS=2.535P AD=2.535P
+ PS=9.1U PD=9.1U
M$31 \$1278 \$8818 \$1263 VDDD pfet_03v3 L=0.28U W=3.9U AS=2.535P AD=2.535P
+ PS=9.1U PD=9.1U
M$32 \$8798 \$8787 \$1263 VDDD pfet_03v3 L=0.28U W=3.9U AS=2.535P AD=2.535P
+ PS=9.1U PD=9.1U
M$33 \$1278 \$8787 \$8799 VDDD pfet_03v3 L=0.28U W=3.9U AS=2.535P AD=2.535P
+ PS=9.1U PD=9.1U
M$34 \$1280 \$8819 \$1265 VDDD pfet_03v3 L=0.28U W=3.9U AS=2.535P AD=2.535P
+ PS=9.1U PD=9.1U
M$35 \$8800 \$8788 \$1265 VDDD pfet_03v3 L=0.28U W=3.9U AS=2.535P AD=2.535P
+ PS=9.1U PD=9.1U
M$36 \$1280 \$8788 \$8801 VDDD pfet_03v3 L=0.28U W=3.9U AS=2.535P AD=2.535P
+ PS=9.1U PD=9.1U
M$37 \$1282 \$8820 \$1267 VDDD pfet_03v3 L=0.28U W=3.9U AS=2.535P AD=2.535P
+ PS=9.1U PD=9.1U
M$38 \$8802 \$8789 \$1267 VDDD pfet_03v3 L=0.28U W=3.9U AS=2.535P AD=2.535P
+ PS=9.1U PD=9.1U
M$39 \$1282 \$8789 \$8803 VDDD pfet_03v3 L=0.28U W=3.9U AS=2.535P AD=2.535P
+ PS=9.1U PD=9.1U
M$40 \$2940 \$8821 \$2938 VDDD pfet_03v3 L=0.28U W=3.9U AS=2.535P AD=2.535P
+ PS=9.1U PD=9.1U
M$41 \$8804 \$8790 \$2938 VDDD pfet_03v3 L=0.28U W=3.9U AS=2.535P AD=2.535P
+ PS=9.1U PD=9.1U
M$42 \$2940 \$8790 \$8805 VDDD pfet_03v3 L=0.28U W=3.9U AS=2.535P AD=2.535P
+ PS=9.1U PD=9.1U
M$43 \$5832 \$8822 \$5830 VDDD pfet_03v3 L=0.28U W=3.9U AS=2.535P AD=2.535P
+ PS=9.1U PD=9.1U
M$44 \$8806 \$8791 \$5830 VDDD pfet_03v3 L=0.28U W=3.9U AS=2.535P AD=2.535P
+ PS=9.1U PD=9.1U
M$45 \$5832 \$8791 \$8807 VDDD pfet_03v3 L=0.28U W=3.9U AS=2.535P AD=2.535P
+ PS=9.1U PD=9.1U
M$46 \$1286 \$8823 \$1271 VDDD pfet_03v3 L=0.28U W=3.9U AS=2.535P AD=2.535P
+ PS=9.1U PD=9.1U
M$47 \$8808 \$8792 \$1271 VDDD pfet_03v3 L=0.28U W=3.9U AS=2.535P AD=2.535P
+ PS=9.1U PD=9.1U
M$48 \$1286 \$8792 \$8809 VDDD pfet_03v3 L=0.28U W=3.9U AS=2.535P AD=2.535P
+ PS=9.1U PD=9.1U
M$49 \$1289 \$8824 \$1274 VDDD pfet_03v3 L=0.28U W=3.9U AS=2.535P AD=2.535P
+ PS=9.1U PD=9.1U
M$50 \$8810 \$8793 \$1274 VDDD pfet_03v3 L=0.28U W=3.9U AS=2.535P AD=2.535P
+ PS=9.1U PD=9.1U
M$51 \$1289 \$8793 \$8811 VDDD pfet_03v3 L=0.28U W=3.9U AS=2.535P AD=2.535P
+ PS=9.1U PD=9.1U
M$52 \$1290 \$8825 \$1275 VDDD pfet_03v3 L=0.28U W=3.9U AS=2.535P AD=2.535P
+ PS=9.1U PD=9.1U
M$53 \$8812 \$8794 \$1275 VDDD pfet_03v3 L=0.28U W=3.9U AS=2.535P AD=2.535P
+ PS=9.1U PD=9.1U
M$54 \$1290 \$8794 \$8813 VDDD pfet_03v3 L=0.28U W=3.9U AS=2.535P AD=2.535P
+ PS=9.1U PD=9.1U
M$55 \$2941 \$8826 \$2939 VDDD pfet_03v3 L=0.28U W=3.9U AS=2.535P AD=2.535P
+ PS=9.1U PD=9.1U
M$56 \$8814 \$8795 \$2939 VDDD pfet_03v3 L=0.28U W=3.9U AS=2.535P AD=2.535P
+ PS=9.1U PD=9.1U
M$57 \$2941 \$8795 \$8815 VDDD pfet_03v3 L=0.28U W=3.9U AS=2.535P AD=2.535P
+ PS=9.1U PD=9.1U
M$58 \$5833 \$8827 \$5831 VDDD pfet_03v3 L=0.28U W=3.9U AS=2.535P AD=2.535P
+ PS=9.1U PD=9.1U
M$59 \$8816 \$8796 \$5831 VDDD pfet_03v3 L=0.28U W=3.9U AS=2.535P AD=2.535P
+ PS=9.1U PD=9.1U
M$60 \$5833 \$8796 \$8817 VDDD pfet_03v3 L=0.28U W=3.9U AS=2.535P AD=2.535P
+ PS=9.1U PD=9.1U
M$61 \$9527 Valid VDDD VDDD pfet_03v3 L=0.28U W=3.9U AS=2.535P AD=2.535P
+ PS=9.1U PD=9.1U
M$62 \$9528 \$9527 VDDD VDDD pfet_03v3 L=0.28U W=3.9U AS=2.535P AD=2.535P
+ PS=9.1U PD=9.1U
M$63 \$9461 \$9528 D VDDD pfet_03v3 L=0.28U W=3.9U AS=2.535P AD=2.535P PS=9.1U
+ PD=9.1U
M$64 \$10346 Set VDDD VDDD pfet_03v3 L=0.28U W=3.9U AS=2.535P AD=2.535P PS=9.1U
+ PD=9.1U
M$65 \$9462 \$9461 \$10346 VDDD pfet_03v3 L=0.28U W=3.9U AS=2.535P AD=2.535P
+ PS=9.1U PD=9.1U
M$66 \$10347 \$9462 VDDD VDDD pfet_03v3 L=0.28U W=3.9U AS=2.535P AD=2.535P
+ PS=9.1U PD=9.1U
M$67 \$9463 clks \$10347 VDDD pfet_03v3 L=0.28U W=3.9U AS=2.535P AD=2.535P
+ PS=9.1U PD=9.1U
M$68 \$9461 \$9527 \$9463 VDDD pfet_03v3 L=0.28U W=3.9U AS=2.535P AD=2.535P
+ PS=9.1U PD=9.1U
M$69 \$9465 \$9527 \$9462 VDDD pfet_03v3 L=0.28U W=3.9U AS=2.535P AD=2.535P
+ PS=9.1U PD=9.1U
M$70 \$10348 clks VDDD VDDD pfet_03v3 L=0.28U W=3.9U AS=2.535P AD=2.535P
+ PS=9.1U PD=9.1U
M$71 \$9466 \$9465 \$10348 VDDD pfet_03v3 L=0.28U W=3.9U AS=2.535P AD=2.535P
+ PS=9.1U PD=9.1U
M$72 \$10349 \$9466 VDDD VDDD pfet_03v3 L=0.28U W=3.9U AS=2.535P AD=2.535P
+ PS=9.1U PD=9.1U
M$73 \$9464 Set \$10349 VDDD pfet_03v3 L=0.28U W=3.9U AS=2.535P AD=2.535P
+ PS=9.1U PD=9.1U
M$74 \$9465 \$9528 \$9464 VDDD pfet_03v3 L=0.28U W=3.9U AS=2.535P AD=2.535P
+ PS=9.1U PD=9.1U
M$75 \$9529 \$9466 VDDD VDDD pfet_03v3 L=0.28U W=3.9U AS=2.535P AD=2.535P
+ PS=9.1U PD=9.1U
M$76 \$9530 Valid VDDD VDDD pfet_03v3 L=0.28U W=3.9U AS=2.535P AD=2.535P
+ PS=9.1U PD=9.1U
M$77 \$9531 \$9530 VDDD VDDD pfet_03v3 L=0.28U W=3.9U AS=2.535P AD=2.535P
+ PS=9.1U PD=9.1U
M$78 \$9467 \$9531 \$9466 VDDD pfet_03v3 L=0.28U W=3.9U AS=2.535P AD=2.535P
+ PS=9.1U PD=9.1U
M$79 \$10350 Set VDDD VDDD pfet_03v3 L=0.28U W=3.9U AS=2.535P AD=2.535P PS=9.1U
+ PD=9.1U
M$80 \$9468 \$9467 \$10350 VDDD pfet_03v3 L=0.28U W=3.9U AS=2.535P AD=2.535P
+ PS=9.1U PD=9.1U
M$81 \$10351 \$9468 VDDD VDDD pfet_03v3 L=0.28U W=3.9U AS=2.535P AD=2.535P
+ PS=9.1U PD=9.1U
M$82 \$9469 clks \$10351 VDDD pfet_03v3 L=0.28U W=3.9U AS=2.535P AD=2.535P
+ PS=9.1U PD=9.1U
M$83 \$9467 \$9530 \$9469 VDDD pfet_03v3 L=0.28U W=3.9U AS=2.535P AD=2.535P
+ PS=9.1U PD=9.1U
M$84 \$9471 \$9530 \$9468 VDDD pfet_03v3 L=0.28U W=3.9U AS=2.535P AD=2.535P
+ PS=9.1U PD=9.1U
M$85 \$10352 clks VDDD VDDD pfet_03v3 L=0.28U W=3.9U AS=2.535P AD=2.535P
+ PS=9.1U PD=9.1U
M$86 \$9472 \$9471 \$10352 VDDD pfet_03v3 L=0.28U W=3.9U AS=2.535P AD=2.535P
+ PS=9.1U PD=9.1U
M$87 \$10353 \$9472 VDDD VDDD pfet_03v3 L=0.28U W=3.9U AS=2.535P AD=2.535P
+ PS=9.1U PD=9.1U
M$88 \$9470 Set \$10353 VDDD pfet_03v3 L=0.28U W=3.9U AS=2.535P AD=2.535P
+ PS=9.1U PD=9.1U
M$89 \$9471 \$9531 \$9470 VDDD pfet_03v3 L=0.28U W=3.9U AS=2.535P AD=2.535P
+ PS=9.1U PD=9.1U
M$90 \$9532 \$9472 VDDD VDDD pfet_03v3 L=0.28U W=3.9U AS=2.535P AD=2.535P
+ PS=9.1U PD=9.1U
M$91 \$9533 Valid VDDD VDDD pfet_03v3 L=0.28U W=3.9U AS=2.535P AD=2.535P
+ PS=9.1U PD=9.1U
M$92 \$9534 \$9533 VDDD VDDD pfet_03v3 L=0.28U W=3.9U AS=2.535P AD=2.535P
+ PS=9.1U PD=9.1U
M$93 \$9473 \$9534 \$9472 VDDD pfet_03v3 L=0.28U W=3.9U AS=2.535P AD=2.535P
+ PS=9.1U PD=9.1U
M$94 \$10354 Set VDDD VDDD pfet_03v3 L=0.28U W=3.9U AS=2.535P AD=2.535P PS=9.1U
+ PD=9.1U
M$95 \$9474 \$9473 \$10354 VDDD pfet_03v3 L=0.28U W=3.9U AS=2.535P AD=2.535P
+ PS=9.1U PD=9.1U
M$96 \$10355 \$9474 VDDD VDDD pfet_03v3 L=0.28U W=3.9U AS=2.535P AD=2.535P
+ PS=9.1U PD=9.1U
M$97 \$9475 clks \$10355 VDDD pfet_03v3 L=0.28U W=3.9U AS=2.535P AD=2.535P
+ PS=9.1U PD=9.1U
M$98 \$9473 \$9533 \$9475 VDDD pfet_03v3 L=0.28U W=3.9U AS=2.535P AD=2.535P
+ PS=9.1U PD=9.1U
M$99 \$9477 \$9533 \$9474 VDDD pfet_03v3 L=0.28U W=3.9U AS=2.535P AD=2.535P
+ PS=9.1U PD=9.1U
M$100 \$10356 clks VDDD VDDD pfet_03v3 L=0.28U W=3.9U AS=2.535P AD=2.535P
+ PS=9.1U PD=9.1U
M$101 \$9478 \$9477 \$10356 VDDD pfet_03v3 L=0.28U W=3.9U AS=2.535P AD=2.535P
+ PS=9.1U PD=9.1U
M$102 \$10357 \$9478 VDDD VDDD pfet_03v3 L=0.28U W=3.9U AS=2.535P AD=2.535P
+ PS=9.1U PD=9.1U
M$103 \$9476 Set \$10357 VDDD pfet_03v3 L=0.28U W=3.9U AS=2.535P AD=2.535P
+ PS=9.1U PD=9.1U
M$104 \$9477 \$9534 \$9476 VDDD pfet_03v3 L=0.28U W=3.9U AS=2.535P AD=2.535P
+ PS=9.1U PD=9.1U
M$105 \$9535 \$9478 VDDD VDDD pfet_03v3 L=0.28U W=3.9U AS=2.535P AD=2.535P
+ PS=9.1U PD=9.1U
M$106 \$9536 Valid VDDD VDDD pfet_03v3 L=0.28U W=3.9U AS=2.535P AD=2.535P
+ PS=9.1U PD=9.1U
M$107 \$9537 \$9536 VDDD VDDD pfet_03v3 L=0.28U W=3.9U AS=2.535P AD=2.535P
+ PS=9.1U PD=9.1U
M$108 \$9479 \$9537 \$9478 VDDD pfet_03v3 L=0.28U W=3.9U AS=2.535P AD=2.535P
+ PS=9.1U PD=9.1U
M$109 \$10358 Set VDDD VDDD pfet_03v3 L=0.28U W=3.9U AS=2.535P AD=2.535P
+ PS=9.1U PD=9.1U
M$110 \$9480 \$9479 \$10358 VDDD pfet_03v3 L=0.28U W=3.9U AS=2.535P AD=2.535P
+ PS=9.1U PD=9.1U
M$111 \$10359 \$9480 VDDD VDDD pfet_03v3 L=0.28U W=3.9U AS=2.535P AD=2.535P
+ PS=9.1U PD=9.1U
M$112 \$9481 clks \$10359 VDDD pfet_03v3 L=0.28U W=3.9U AS=2.535P AD=2.535P
+ PS=9.1U PD=9.1U
M$113 \$9479 \$9536 \$9481 VDDD pfet_03v3 L=0.28U W=3.9U AS=2.535P AD=2.535P
+ PS=9.1U PD=9.1U
M$114 \$9483 \$9536 \$9480 VDDD pfet_03v3 L=0.28U W=3.9U AS=2.535P AD=2.535P
+ PS=9.1U PD=9.1U
M$115 \$10360 clks VDDD VDDD pfet_03v3 L=0.28U W=3.9U AS=2.535P AD=2.535P
+ PS=9.1U PD=9.1U
M$116 \$9484 \$9483 \$10360 VDDD pfet_03v3 L=0.28U W=3.9U AS=2.535P AD=2.535P
+ PS=9.1U PD=9.1U
M$117 \$10361 \$9484 VDDD VDDD pfet_03v3 L=0.28U W=3.9U AS=2.535P AD=2.535P
+ PS=9.1U PD=9.1U
M$118 \$9482 Set \$10361 VDDD pfet_03v3 L=0.28U W=3.9U AS=2.535P AD=2.535P
+ PS=9.1U PD=9.1U
M$119 \$9483 \$9537 \$9482 VDDD pfet_03v3 L=0.28U W=3.9U AS=2.535P AD=2.535P
+ PS=9.1U PD=9.1U
M$120 \$9538 \$9484 VDDD VDDD pfet_03v3 L=0.28U W=3.9U AS=2.535P AD=2.535P
+ PS=9.1U PD=9.1U
M$121 \$9539 Valid VDDD VDDD pfet_03v3 L=0.28U W=3.9U AS=2.535P AD=2.535P
+ PS=9.1U PD=9.1U
M$122 \$9540 \$9539 VDDD VDDD pfet_03v3 L=0.28U W=3.9U AS=2.535P AD=2.535P
+ PS=9.1U PD=9.1U
M$123 \$9485 \$9540 \$9484 VDDD pfet_03v3 L=0.28U W=3.9U AS=2.535P AD=2.535P
+ PS=9.1U PD=9.1U
M$124 \$10362 Set VDDD VDDD pfet_03v3 L=0.28U W=3.9U AS=2.535P AD=2.535P
+ PS=9.1U PD=9.1U
M$125 \$9486 \$9485 \$10362 VDDD pfet_03v3 L=0.28U W=3.9U AS=2.535P AD=2.535P
+ PS=9.1U PD=9.1U
M$126 \$10363 \$9486 VDDD VDDD pfet_03v3 L=0.28U W=3.9U AS=2.535P AD=2.535P
+ PS=9.1U PD=9.1U
M$127 \$9487 clks \$10363 VDDD pfet_03v3 L=0.28U W=3.9U AS=2.535P AD=2.535P
+ PS=9.1U PD=9.1U
M$128 \$9485 \$9539 \$9487 VDDD pfet_03v3 L=0.28U W=3.9U AS=2.535P AD=2.535P
+ PS=9.1U PD=9.1U
M$129 \$9489 \$9539 \$9486 VDDD pfet_03v3 L=0.28U W=3.9U AS=2.535P AD=2.535P
+ PS=9.1U PD=9.1U
M$130 \$10364 clks VDDD VDDD pfet_03v3 L=0.28U W=3.9U AS=2.535P AD=2.535P
+ PS=9.1U PD=9.1U
M$131 \$9490 \$9489 \$10364 VDDD pfet_03v3 L=0.28U W=3.9U AS=2.535P AD=2.535P
+ PS=9.1U PD=9.1U
M$132 \$10365 \$9490 VDDD VDDD pfet_03v3 L=0.28U W=3.9U AS=2.535P AD=2.535P
+ PS=9.1U PD=9.1U
M$133 \$9488 Set \$10365 VDDD pfet_03v3 L=0.28U W=3.9U AS=2.535P AD=2.535P
+ PS=9.1U PD=9.1U
M$134 \$9489 \$9540 \$9488 VDDD pfet_03v3 L=0.28U W=3.9U AS=2.535P AD=2.535P
+ PS=9.1U PD=9.1U
M$135 \$9541 \$9490 VDDD VDDD pfet_03v3 L=0.28U W=3.9U AS=2.535P AD=2.535P
+ PS=9.1U PD=9.1U
M$136 \$9542 Valid VDDD VDDD pfet_03v3 L=0.28U W=3.9U AS=2.535P AD=2.535P
+ PS=9.1U PD=9.1U
M$137 \$9543 \$9542 VDDD VDDD pfet_03v3 L=0.28U W=3.9U AS=2.535P AD=2.535P
+ PS=9.1U PD=9.1U
M$138 \$9491 \$9543 \$9490 VDDD pfet_03v3 L=0.28U W=3.9U AS=2.535P AD=2.535P
+ PS=9.1U PD=9.1U
M$139 \$10366 Set VDDD VDDD pfet_03v3 L=0.28U W=3.9U AS=2.535P AD=2.535P
+ PS=9.1U PD=9.1U
M$140 \$9492 \$9491 \$10366 VDDD pfet_03v3 L=0.28U W=3.9U AS=2.535P AD=2.535P
+ PS=9.1U PD=9.1U
M$141 \$10367 \$9492 VDDD VDDD pfet_03v3 L=0.28U W=3.9U AS=2.535P AD=2.535P
+ PS=9.1U PD=9.1U
M$142 \$9493 clks \$10367 VDDD pfet_03v3 L=0.28U W=3.9U AS=2.535P AD=2.535P
+ PS=9.1U PD=9.1U
M$143 \$9491 \$9542 \$9493 VDDD pfet_03v3 L=0.28U W=3.9U AS=2.535P AD=2.535P
+ PS=9.1U PD=9.1U
M$144 \$9495 \$9542 \$9492 VDDD pfet_03v3 L=0.28U W=3.9U AS=2.535P AD=2.535P
+ PS=9.1U PD=9.1U
M$145 \$10368 clks VDDD VDDD pfet_03v3 L=0.28U W=3.9U AS=2.535P AD=2.535P
+ PS=9.1U PD=9.1U
M$146 \$9496 \$9495 \$10368 VDDD pfet_03v3 L=0.28U W=3.9U AS=2.535P AD=2.535P
+ PS=9.1U PD=9.1U
M$147 \$10369 \$9496 VDDD VDDD pfet_03v3 L=0.28U W=3.9U AS=2.535P AD=2.535P
+ PS=9.1U PD=9.1U
M$148 \$9494 Set \$10369 VDDD pfet_03v3 L=0.28U W=3.9U AS=2.535P AD=2.535P
+ PS=9.1U PD=9.1U
M$149 \$9495 \$9543 \$9494 VDDD pfet_03v3 L=0.28U W=3.9U AS=2.535P AD=2.535P
+ PS=9.1U PD=9.1U
M$150 \$9544 \$9496 VDDD VDDD pfet_03v3 L=0.28U W=3.9U AS=2.535P AD=2.535P
+ PS=9.1U PD=9.1U
M$151 \$9545 Valid VDDD VDDD pfet_03v3 L=0.28U W=3.9U AS=2.535P AD=2.535P
+ PS=9.1U PD=9.1U
M$152 \$9546 \$9545 VDDD VDDD pfet_03v3 L=0.28U W=3.9U AS=2.535P AD=2.535P
+ PS=9.1U PD=9.1U
M$153 \$9497 \$9546 \$9496 VDDD pfet_03v3 L=0.28U W=3.9U AS=2.535P AD=2.535P
+ PS=9.1U PD=9.1U
M$154 \$10370 Set VDDD VDDD pfet_03v3 L=0.28U W=3.9U AS=2.535P AD=2.535P
+ PS=9.1U PD=9.1U
M$155 \$9498 \$9497 \$10370 VDDD pfet_03v3 L=0.28U W=3.9U AS=2.535P AD=2.535P
+ PS=9.1U PD=9.1U
M$156 \$10371 \$9498 VDDD VDDD pfet_03v3 L=0.28U W=3.9U AS=2.535P AD=2.535P
+ PS=9.1U PD=9.1U
M$157 \$9499 clks \$10371 VDDD pfet_03v3 L=0.28U W=3.9U AS=2.535P AD=2.535P
+ PS=9.1U PD=9.1U
M$158 \$9497 \$9545 \$9499 VDDD pfet_03v3 L=0.28U W=3.9U AS=2.535P AD=2.535P
+ PS=9.1U PD=9.1U
M$159 \$9501 \$9545 \$9498 VDDD pfet_03v3 L=0.28U W=3.9U AS=2.535P AD=2.535P
+ PS=9.1U PD=9.1U
M$160 \$10372 clks VDDD VDDD pfet_03v3 L=0.28U W=3.9U AS=2.535P AD=2.535P
+ PS=9.1U PD=9.1U
M$161 \$9502 \$9501 \$10372 VDDD pfet_03v3 L=0.28U W=3.9U AS=2.535P AD=2.535P
+ PS=9.1U PD=9.1U
M$162 \$10373 \$9502 VDDD VDDD pfet_03v3 L=0.28U W=3.9U AS=2.535P AD=2.535P
+ PS=9.1U PD=9.1U
M$163 \$9500 Set \$10373 VDDD pfet_03v3 L=0.28U W=3.9U AS=2.535P AD=2.535P
+ PS=9.1U PD=9.1U
M$164 \$9501 \$9546 \$9500 VDDD pfet_03v3 L=0.28U W=3.9U AS=2.535P AD=2.535P
+ PS=9.1U PD=9.1U
M$165 \$9547 \$9502 VDDD VDDD pfet_03v3 L=0.28U W=3.9U AS=2.535P AD=2.535P
+ PS=9.1U PD=9.1U
M$166 \$9548 Valid VDDD VDDD pfet_03v3 L=0.28U W=3.9U AS=2.535P AD=2.535P
+ PS=9.1U PD=9.1U
M$167 \$9549 \$9548 VDDD VDDD pfet_03v3 L=0.28U W=3.9U AS=2.535P AD=2.535P
+ PS=9.1U PD=9.1U
M$168 \$9503 \$9549 \$9502 VDDD pfet_03v3 L=0.28U W=3.9U AS=2.535P AD=2.535P
+ PS=9.1U PD=9.1U
M$169 \$10374 Set VDDD VDDD pfet_03v3 L=0.28U W=3.9U AS=2.535P AD=2.535P
+ PS=9.1U PD=9.1U
M$170 \$9504 \$9503 \$10374 VDDD pfet_03v3 L=0.28U W=3.9U AS=2.535P AD=2.535P
+ PS=9.1U PD=9.1U
M$171 \$10375 \$9504 VDDD VDDD pfet_03v3 L=0.28U W=3.9U AS=2.535P AD=2.535P
+ PS=9.1U PD=9.1U
M$172 \$9505 clks \$10375 VDDD pfet_03v3 L=0.28U W=3.9U AS=2.535P AD=2.535P
+ PS=9.1U PD=9.1U
M$173 \$9503 \$9548 \$9505 VDDD pfet_03v3 L=0.28U W=3.9U AS=2.535P AD=2.535P
+ PS=9.1U PD=9.1U
M$174 \$9507 \$9548 \$9504 VDDD pfet_03v3 L=0.28U W=3.9U AS=2.535P AD=2.535P
+ PS=9.1U PD=9.1U
M$175 \$10376 clks VDDD VDDD pfet_03v3 L=0.28U W=3.9U AS=2.535P AD=2.535P
+ PS=9.1U PD=9.1U
M$176 \$9508 \$9507 \$10376 VDDD pfet_03v3 L=0.28U W=3.9U AS=2.535P AD=2.535P
+ PS=9.1U PD=9.1U
M$177 \$10377 \$9508 VDDD VDDD pfet_03v3 L=0.28U W=3.9U AS=2.535P AD=2.535P
+ PS=9.1U PD=9.1U
M$178 \$9506 Set \$10377 VDDD pfet_03v3 L=0.28U W=3.9U AS=2.535P AD=2.535P
+ PS=9.1U PD=9.1U
M$179 \$9507 \$9549 \$9506 VDDD pfet_03v3 L=0.28U W=3.9U AS=2.535P AD=2.535P
+ PS=9.1U PD=9.1U
M$180 \$9550 \$9508 VDDD VDDD pfet_03v3 L=0.28U W=3.9U AS=2.535P AD=2.535P
+ PS=9.1U PD=9.1U
M$181 \$9551 Valid VDDD VDDD pfet_03v3 L=0.28U W=3.9U AS=2.535P AD=2.535P
+ PS=9.1U PD=9.1U
M$182 \$9552 \$9551 VDDD VDDD pfet_03v3 L=0.28U W=3.9U AS=2.535P AD=2.535P
+ PS=9.1U PD=9.1U
M$183 \$9509 \$9552 \$9508 VDDD pfet_03v3 L=0.28U W=3.9U AS=2.535P AD=2.535P
+ PS=9.1U PD=9.1U
M$184 \$10378 Set VDDD VDDD pfet_03v3 L=0.28U W=3.9U AS=2.535P AD=2.535P
+ PS=9.1U PD=9.1U
M$185 \$9510 \$9509 \$10378 VDDD pfet_03v3 L=0.28U W=3.9U AS=2.535P AD=2.535P
+ PS=9.1U PD=9.1U
M$186 \$10379 \$9510 VDDD VDDD pfet_03v3 L=0.28U W=3.9U AS=2.535P AD=2.535P
+ PS=9.1U PD=9.1U
M$187 \$9511 clks \$10379 VDDD pfet_03v3 L=0.28U W=3.9U AS=2.535P AD=2.535P
+ PS=9.1U PD=9.1U
M$188 \$9509 \$9551 \$9511 VDDD pfet_03v3 L=0.28U W=3.9U AS=2.535P AD=2.535P
+ PS=9.1U PD=9.1U
M$189 \$9513 \$9551 \$9510 VDDD pfet_03v3 L=0.28U W=3.9U AS=2.535P AD=2.535P
+ PS=9.1U PD=9.1U
M$190 \$10380 clks VDDD VDDD pfet_03v3 L=0.28U W=3.9U AS=2.535P AD=2.535P
+ PS=9.1U PD=9.1U
M$191 \$9514 \$9513 \$10380 VDDD pfet_03v3 L=0.28U W=3.9U AS=2.535P AD=2.535P
+ PS=9.1U PD=9.1U
M$192 \$10381 \$9514 VDDD VDDD pfet_03v3 L=0.28U W=3.9U AS=2.535P AD=2.535P
+ PS=9.1U PD=9.1U
M$193 \$9512 Set \$10381 VDDD pfet_03v3 L=0.28U W=3.9U AS=2.535P AD=2.535P
+ PS=9.1U PD=9.1U
M$194 \$9513 \$9552 \$9512 VDDD pfet_03v3 L=0.28U W=3.9U AS=2.535P AD=2.535P
+ PS=9.1U PD=9.1U
M$195 \$9553 \$9514 VDDD VDDD pfet_03v3 L=0.28U W=3.9U AS=2.535P AD=2.535P
+ PS=9.1U PD=9.1U
M$196 \$9554 Valid VDDD VDDD pfet_03v3 L=0.28U W=3.9U AS=2.535P AD=2.535P
+ PS=9.1U PD=9.1U
M$197 \$9555 \$9554 VDDD VDDD pfet_03v3 L=0.28U W=3.9U AS=2.535P AD=2.535P
+ PS=9.1U PD=9.1U
M$198 \$9515 \$9555 \$9514 VDDD pfet_03v3 L=0.28U W=3.9U AS=2.535P AD=2.535P
+ PS=9.1U PD=9.1U
M$199 \$10382 Set VDDD VDDD pfet_03v3 L=0.28U W=3.9U AS=2.535P AD=2.535P
+ PS=9.1U PD=9.1U
M$200 \$9516 \$9515 \$10382 VDDD pfet_03v3 L=0.28U W=3.9U AS=2.535P AD=2.535P
+ PS=9.1U PD=9.1U
M$201 \$10383 \$9516 VDDD VDDD pfet_03v3 L=0.28U W=3.9U AS=2.535P AD=2.535P
+ PS=9.1U PD=9.1U
M$202 \$9517 clks \$10383 VDDD pfet_03v3 L=0.28U W=3.9U AS=2.535P AD=2.535P
+ PS=9.1U PD=9.1U
M$203 \$9515 \$9554 \$9517 VDDD pfet_03v3 L=0.28U W=3.9U AS=2.535P AD=2.535P
+ PS=9.1U PD=9.1U
M$204 \$9519 \$9554 \$9516 VDDD pfet_03v3 L=0.28U W=3.9U AS=2.535P AD=2.535P
+ PS=9.1U PD=9.1U
M$205 \$10384 clks VDDD VDDD pfet_03v3 L=0.28U W=3.9U AS=2.535P AD=2.535P
+ PS=9.1U PD=9.1U
M$206 \$9520 \$9519 \$10384 VDDD pfet_03v3 L=0.28U W=3.9U AS=2.535P AD=2.535P
+ PS=9.1U PD=9.1U
M$207 \$10385 \$9520 VDDD VDDD pfet_03v3 L=0.28U W=3.9U AS=2.535P AD=2.535P
+ PS=9.1U PD=9.1U
M$208 \$9518 Set \$10385 VDDD pfet_03v3 L=0.28U W=3.9U AS=2.535P AD=2.535P
+ PS=9.1U PD=9.1U
M$209 \$9519 \$9555 \$9518 VDDD pfet_03v3 L=0.28U W=3.9U AS=2.535P AD=2.535P
+ PS=9.1U PD=9.1U
M$210 \$9556 \$9520 VDDD VDDD pfet_03v3 L=0.28U W=3.9U AS=2.535P AD=2.535P
+ PS=9.1U PD=9.1U
M$211 \$9557 Valid VDDD VDDD pfet_03v3 L=0.28U W=3.9U AS=2.535P AD=2.535P
+ PS=9.1U PD=9.1U
M$212 \$9558 \$9557 VDDD VDDD pfet_03v3 L=0.28U W=3.9U AS=2.535P AD=2.535P
+ PS=9.1U PD=9.1U
M$213 \$9521 \$9558 \$9520 VDDD pfet_03v3 L=0.28U W=3.9U AS=2.535P AD=2.535P
+ PS=9.1U PD=9.1U
M$214 \$10386 Set VDDD VDDD pfet_03v3 L=0.28U W=3.9U AS=2.535P AD=2.535P
+ PS=9.1U PD=9.1U
M$215 \$9522 \$9521 \$10386 VDDD pfet_03v3 L=0.28U W=3.9U AS=2.535P AD=2.535P
+ PS=9.1U PD=9.1U
M$216 \$10387 \$9522 VDDD VDDD pfet_03v3 L=0.28U W=3.9U AS=2.535P AD=2.535P
+ PS=9.1U PD=9.1U
M$217 \$9523 clks \$10387 VDDD pfet_03v3 L=0.28U W=3.9U AS=2.535P AD=2.535P
+ PS=9.1U PD=9.1U
M$218 \$9521 \$9557 \$9523 VDDD pfet_03v3 L=0.28U W=3.9U AS=2.535P AD=2.535P
+ PS=9.1U PD=9.1U
M$219 \$9526 \$9557 \$9522 VDDD pfet_03v3 L=0.28U W=3.9U AS=2.535P AD=2.535P
+ PS=9.1U PD=9.1U
M$220 \$10388 clks VDDD VDDD pfet_03v3 L=0.28U W=3.9U AS=2.535P AD=2.535P
+ PS=9.1U PD=9.1U
M$221 CK_1 \$9526 \$10388 VDDD pfet_03v3 L=0.28U W=3.9U AS=2.535P AD=2.535P
+ PS=9.1U PD=9.1U
M$222 \$10389 CK_1 VDDD VDDD pfet_03v3 L=0.28U W=3.9U AS=2.535P AD=2.535P
+ PS=9.1U PD=9.1U
M$223 \$9525 Set \$10389 VDDD pfet_03v3 L=0.28U W=3.9U AS=2.535P AD=2.535P
+ PS=9.1U PD=9.1U
M$224 \$9526 \$9558 \$9525 VDDD pfet_03v3 L=0.28U W=3.9U AS=2.535P AD=2.535P
+ PS=9.1U PD=9.1U
M$225 \$9559 CK_1 VDDD VDDD pfet_03v3 L=0.28U W=3.9U AS=2.535P AD=2.535P
+ PS=9.1U PD=9.1U
M$226 \$10972 \$11176 \$10973 VDDD pfet_03v3 L=0.28U W=3.9U AS=2.535P AD=2.535P
+ PS=9.1U PD=9.1U
M$227 VDDD \$10973 \$11809 VDDD pfet_03v3 L=0.28U W=3.9U AS=2.535P AD=2.535P
+ PS=9.1U PD=9.1U
M$228 \$11016 clks VDDD VDDD pfet_03v3 L=0.28U W=3.9U AS=2.535P AD=2.535P
+ PS=9.1U PD=9.1U
M$229 \$11017 \$11016 VDDD VDDD pfet_03v3 L=0.28U W=3.9U AS=2.535P AD=2.535P
+ PS=9.1U PD=9.1U
M$230 \$11792 \$11811 \$11747 VDDD pfet_03v3 L=0.28U W=3.9U AS=2.535P AD=2.535P
+ PS=9.1U PD=9.1U
M$231 \$12323 Set \$11792 VDDD pfet_03v3 L=0.28U W=3.9U AS=2.535P AD=2.535P
+ PS=9.1U PD=9.1U
M$232 \$10974 \$11017 \$10973 VDDD pfet_03v3 L=0.28U W=3.9U AS=2.535P AD=2.535P
+ PS=9.1U PD=9.1U
M$233 VDDD \$10973 \$12323 VDDD pfet_03v3 L=0.28U W=3.9U AS=2.535P AD=2.535P
+ PS=9.1U PD=9.1U
M$234 \$11392 Set VDDD VDDD pfet_03v3 L=0.28U W=3.9U AS=2.535P AD=2.535P
+ PS=9.1U PD=9.1U
M$235 \$10975 \$10974 \$11392 VDDD pfet_03v3 L=0.28U W=3.9U AS=2.535P AD=2.535P
+ PS=9.1U PD=9.1U
M$236 \$12324 \$11747 \$10973 VDDD pfet_03v3 L=0.28U W=3.9U AS=2.535P AD=2.535P
+ PS=9.1U PD=9.1U
M$237 VDDD Reset \$12324 VDDD pfet_03v3 L=0.28U W=3.9U AS=2.535P AD=2.535P
+ PS=9.1U PD=9.1U
M$238 \$11393 \$10975 VDDD VDDD pfet_03v3 L=0.28U W=3.9U AS=2.535P AD=2.535P
+ PS=9.1U PD=9.1U
M$239 \$10976 Reset \$11393 VDDD pfet_03v3 L=0.28U W=3.9U AS=2.535P AD=2.535P
+ PS=9.1U PD=9.1U
M$240 \$11793 \$11810 \$11747 VDDD pfet_03v3 L=0.28U W=3.9U AS=2.535P AD=2.535P
+ PS=9.1U PD=9.1U
M$241 \$10974 \$11016 \$10976 VDDD pfet_03v3 L=0.28U W=3.9U AS=2.535P AD=2.535P
+ PS=9.1U PD=9.1U
M$242 \$11794 \$11810 \$11782 VDDD pfet_03v3 L=0.28U W=3.9U AS=2.535P AD=2.535P
+ PS=9.1U PD=9.1U
M$243 \$10979 \$11016 \$10975 VDDD pfet_03v3 L=0.28U W=3.9U AS=2.535P AD=2.535P
+ PS=9.1U PD=9.1U
M$244 \$12325 Reset \$11794 VDDD pfet_03v3 L=0.28U W=3.9U AS=2.535P AD=2.535P
+ PS=9.1U PD=9.1U
M$245 VDDD \$11793 \$12325 VDDD pfet_03v3 L=0.28U W=3.9U AS=2.535P AD=2.535P
+ PS=9.1U PD=9.1U
M$246 \$11394 Reset VDDD VDDD pfet_03v3 L=0.28U W=3.9U AS=2.535P AD=2.535P
+ PS=9.1U PD=9.1U
M$247 \$10977 \$10979 \$11394 VDDD pfet_03v3 L=0.28U W=3.9U AS=2.535P AD=2.535P
+ PS=9.1U PD=9.1U
M$248 \$12326 \$11782 \$11793 VDDD pfet_03v3 L=0.28U W=3.9U AS=2.535P AD=2.535P
+ PS=9.1U PD=9.1U
M$249 VDDD Set \$12326 VDDD pfet_03v3 L=0.28U W=3.9U AS=2.535P AD=2.535P
+ PS=9.1U PD=9.1U
M$250 \$11395 \$10977 VDDD VDDD pfet_03v3 L=0.28U W=3.9U AS=2.535P AD=2.535P
+ PS=9.1U PD=9.1U
M$251 vocp \$11811 \$11782 VDDD pfet_03v3 L=0.28U W=3.9U AS=2.535P AD=2.535P
+ PS=9.1U PD=9.1U
M$252 \$10978 Set \$11395 VDDD pfet_03v3 L=0.28U W=3.9U AS=2.535P AD=2.535P
+ PS=9.1U PD=9.1U
M$253 \$10979 \$11017 \$10978 VDDD pfet_03v3 L=0.28U W=3.9U AS=2.535P AD=2.535P
+ PS=9.1U PD=9.1U
M$254 VDDD \$11810 \$11811 VDDD pfet_03v3 L=0.28U W=3.9U AS=2.535P AD=2.535P
+ PS=9.1U PD=9.1U
M$255 VDDD \$11015 \$11810 VDDD pfet_03v3 L=0.28U W=3.9U AS=2.535P AD=2.535P
+ PS=9.1U PD=9.1U
M$256 \$11018 \$10977 VDDD VDDD pfet_03v3 L=0.28U W=3.9U AS=2.535P AD=2.535P
+ PS=9.1U PD=9.1U
M$257 VDDD \$11176 \$11015 VDDD pfet_03v3 L=0.28U W=3.9U AS=2.535P AD=2.535P
+ PS=9.1U PD=9.1U
M$258 VDDD CK_1 \$11176 VDDD pfet_03v3 L=0.28U W=3.9U AS=2.535P AD=2.535P
+ PS=9.1U PD=9.1U
M$259 \$10970 \$11190 \$10980 VDDD pfet_03v3 L=0.28U W=3.9U AS=2.535P AD=2.535P
+ PS=9.1U PD=9.1U
M$260 VDDD \$10980 \$11813 VDDD pfet_03v3 L=0.28U W=3.9U AS=2.535P AD=2.535P
+ PS=9.1U PD=9.1U
M$261 \$11020 clks VDDD VDDD pfet_03v3 L=0.28U W=3.9U AS=2.535P AD=2.535P
+ PS=9.1U PD=9.1U
M$262 \$11021 \$11020 VDDD VDDD pfet_03v3 L=0.28U W=3.9U AS=2.535P AD=2.535P
+ PS=9.1U PD=9.1U
M$263 \$11795 \$11815 \$11748 VDDD pfet_03v3 L=0.28U W=3.9U AS=2.535P AD=2.535P
+ PS=9.1U PD=9.1U
M$264 \$12327 Set \$11795 VDDD pfet_03v3 L=0.28U W=3.9U AS=2.535P AD=2.535P
+ PS=9.1U PD=9.1U
M$265 \$10981 \$11021 \$10980 VDDD pfet_03v3 L=0.28U W=3.9U AS=2.535P AD=2.535P
+ PS=9.1U PD=9.1U
M$266 VDDD \$10980 \$12327 VDDD pfet_03v3 L=0.28U W=3.9U AS=2.535P AD=2.535P
+ PS=9.1U PD=9.1U
M$267 \$11396 Set VDDD VDDD pfet_03v3 L=0.28U W=3.9U AS=2.535P AD=2.535P
+ PS=9.1U PD=9.1U
M$268 \$10982 \$10981 \$11396 VDDD pfet_03v3 L=0.28U W=3.9U AS=2.535P AD=2.535P
+ PS=9.1U PD=9.1U
M$269 \$12328 \$11748 \$10980 VDDD pfet_03v3 L=0.28U W=3.9U AS=2.535P AD=2.535P
+ PS=9.1U PD=9.1U
M$270 VDDD Reset \$12328 VDDD pfet_03v3 L=0.28U W=3.9U AS=2.535P AD=2.535P
+ PS=9.1U PD=9.1U
M$271 \$11397 \$10982 VDDD VDDD pfet_03v3 L=0.28U W=3.9U AS=2.535P AD=2.535P
+ PS=9.1U PD=9.1U
M$272 \$10983 Reset \$11397 VDDD pfet_03v3 L=0.28U W=3.9U AS=2.535P AD=2.535P
+ PS=9.1U PD=9.1U
M$273 \$11796 \$11814 \$11748 VDDD pfet_03v3 L=0.28U W=3.9U AS=2.535P AD=2.535P
+ PS=9.1U PD=9.1U
M$274 \$10981 \$11020 \$10983 VDDD pfet_03v3 L=0.28U W=3.9U AS=2.535P AD=2.535P
+ PS=9.1U PD=9.1U
M$275 \$11797 \$11814 \$11783 VDDD pfet_03v3 L=0.28U W=3.9U AS=2.535P AD=2.535P
+ PS=9.1U PD=9.1U
M$276 \$10986 \$11020 \$10982 VDDD pfet_03v3 L=0.28U W=3.9U AS=2.535P AD=2.535P
+ PS=9.1U PD=9.1U
M$277 \$12329 Reset \$11797 VDDD pfet_03v3 L=0.28U W=3.9U AS=2.535P AD=2.535P
+ PS=9.1U PD=9.1U
M$278 VDDD \$11796 \$12329 VDDD pfet_03v3 L=0.28U W=3.9U AS=2.535P AD=2.535P
+ PS=9.1U PD=9.1U
M$279 \$11398 Reset VDDD VDDD pfet_03v3 L=0.28U W=3.9U AS=2.535P AD=2.535P
+ PS=9.1U PD=9.1U
M$280 \$10984 \$10986 \$11398 VDDD pfet_03v3 L=0.28U W=3.9U AS=2.535P AD=2.535P
+ PS=9.1U PD=9.1U
M$281 \$12330 \$11783 \$11796 VDDD pfet_03v3 L=0.28U W=3.9U AS=2.535P AD=2.535P
+ PS=9.1U PD=9.1U
M$282 VDDD Set \$12330 VDDD pfet_03v3 L=0.28U W=3.9U AS=2.535P AD=2.535P
+ PS=9.1U PD=9.1U
M$283 \$11399 \$10984 VDDD VDDD pfet_03v3 L=0.28U W=3.9U AS=2.535P AD=2.535P
+ PS=9.1U PD=9.1U
M$284 vocp \$11815 \$11783 VDDD pfet_03v3 L=0.28U W=3.9U AS=2.535P AD=2.535P
+ PS=9.1U PD=9.1U
M$285 \$10985 Set \$11399 VDDD pfet_03v3 L=0.28U W=3.9U AS=2.535P AD=2.535P
+ PS=9.1U PD=9.1U
M$286 \$10986 \$11021 \$10985 VDDD pfet_03v3 L=0.28U W=3.9U AS=2.535P AD=2.535P
+ PS=9.1U PD=9.1U
M$287 VDDD \$11814 \$11815 VDDD pfet_03v3 L=0.28U W=3.9U AS=2.535P AD=2.535P
+ PS=9.1U PD=9.1U
M$288 VDDD \$11019 \$11814 VDDD pfet_03v3 L=0.28U W=3.9U AS=2.535P AD=2.535P
+ PS=9.1U PD=9.1U
M$289 \$11022 \$10984 VDDD VDDD pfet_03v3 L=0.28U W=3.9U AS=2.535P AD=2.535P
+ PS=9.1U PD=9.1U
M$290 VDDD \$11190 \$11019 VDDD pfet_03v3 L=0.28U W=3.9U AS=2.535P AD=2.535P
+ PS=9.1U PD=9.1U
M$291 VDDD \$9520 \$11190 VDDD pfet_03v3 L=0.28U W=3.9U AS=2.535P AD=2.535P
+ PS=9.1U PD=9.1U
M$292 \$10987 \$11203 \$10988 VDDD pfet_03v3 L=0.28U W=3.9U AS=2.535P AD=2.535P
+ PS=9.1U PD=9.1U
M$293 VDDD \$10988 \$11817 VDDD pfet_03v3 L=0.28U W=3.9U AS=2.535P AD=2.535P
+ PS=9.1U PD=9.1U
M$294 \$11024 clks VDDD VDDD pfet_03v3 L=0.28U W=3.9U AS=2.535P AD=2.535P
+ PS=9.1U PD=9.1U
M$295 \$11025 \$11024 VDDD VDDD pfet_03v3 L=0.28U W=3.9U AS=2.535P AD=2.535P
+ PS=9.1U PD=9.1U
M$296 \$11798 \$11819 \$11749 VDDD pfet_03v3 L=0.28U W=3.9U AS=2.535P AD=2.535P
+ PS=9.1U PD=9.1U
M$297 \$12331 Set \$11798 VDDD pfet_03v3 L=0.28U W=3.9U AS=2.535P AD=2.535P
+ PS=9.1U PD=9.1U
M$298 \$10989 \$11025 \$10988 VDDD pfet_03v3 L=0.28U W=3.9U AS=2.535P AD=2.535P
+ PS=9.1U PD=9.1U
M$299 VDDD \$10988 \$12331 VDDD pfet_03v3 L=0.28U W=3.9U AS=2.535P AD=2.535P
+ PS=9.1U PD=9.1U
M$300 \$11400 Set VDDD VDDD pfet_03v3 L=0.28U W=3.9U AS=2.535P AD=2.535P
+ PS=9.1U PD=9.1U
M$301 \$10990 \$10989 \$11400 VDDD pfet_03v3 L=0.28U W=3.9U AS=2.535P AD=2.535P
+ PS=9.1U PD=9.1U
M$302 \$12332 \$11749 \$10988 VDDD pfet_03v3 L=0.28U W=3.9U AS=2.535P AD=2.535P
+ PS=9.1U PD=9.1U
M$303 VDDD Reset \$12332 VDDD pfet_03v3 L=0.28U W=3.9U AS=2.535P AD=2.535P
+ PS=9.1U PD=9.1U
M$304 \$11401 \$10990 VDDD VDDD pfet_03v3 L=0.28U W=3.9U AS=2.535P AD=2.535P
+ PS=9.1U PD=9.1U
M$305 \$10991 Reset \$11401 VDDD pfet_03v3 L=0.28U W=3.9U AS=2.535P AD=2.535P
+ PS=9.1U PD=9.1U
M$306 \$11799 \$11818 \$11749 VDDD pfet_03v3 L=0.28U W=3.9U AS=2.535P AD=2.535P
+ PS=9.1U PD=9.1U
M$307 \$10989 \$11024 \$10991 VDDD pfet_03v3 L=0.28U W=3.9U AS=2.535P AD=2.535P
+ PS=9.1U PD=9.1U
M$308 \$11800 \$11818 \$11784 VDDD pfet_03v3 L=0.28U W=3.9U AS=2.535P AD=2.535P
+ PS=9.1U PD=9.1U
M$309 \$10994 \$11024 \$10990 VDDD pfet_03v3 L=0.28U W=3.9U AS=2.535P AD=2.535P
+ PS=9.1U PD=9.1U
M$310 \$12333 Reset \$11800 VDDD pfet_03v3 L=0.28U W=3.9U AS=2.535P AD=2.535P
+ PS=9.1U PD=9.1U
M$311 VDDD \$11799 \$12333 VDDD pfet_03v3 L=0.28U W=3.9U AS=2.535P AD=2.535P
+ PS=9.1U PD=9.1U
M$312 \$11402 Reset VDDD VDDD pfet_03v3 L=0.28U W=3.9U AS=2.535P AD=2.535P
+ PS=9.1U PD=9.1U
M$313 \$10992 \$10994 \$11402 VDDD pfet_03v3 L=0.28U W=3.9U AS=2.535P AD=2.535P
+ PS=9.1U PD=9.1U
M$314 \$12334 \$11784 \$11799 VDDD pfet_03v3 L=0.28U W=3.9U AS=2.535P AD=2.535P
+ PS=9.1U PD=9.1U
M$315 VDDD Set \$12334 VDDD pfet_03v3 L=0.28U W=3.9U AS=2.535P AD=2.535P
+ PS=9.1U PD=9.1U
M$316 \$11403 \$10992 VDDD VDDD pfet_03v3 L=0.28U W=3.9U AS=2.535P AD=2.535P
+ PS=9.1U PD=9.1U
M$317 vocp \$11819 \$11784 VDDD pfet_03v3 L=0.28U W=3.9U AS=2.535P AD=2.535P
+ PS=9.1U PD=9.1U