* Extracted by KLayout with GF180MCU LVS runset on : 02/04/2024 15:15

.SUBCKT Filter_TOP VCM IN_POS VDD VSS OUT IBPOUT IBNOUT I1N I1U IN_NEG
M$1 VDD VDD VDD VDD pfet_03v3 L=2U W=2U AS=1.3P AD=0.84P PS=5.3U PD=2.84U
M$2 VDD VDD VDD VDD pfet_03v3 L=2U W=2U AS=0.84P AD=1.3P PS=2.84U PD=5.3U
M$3 VDD VDD VDD VDD pfet_03v3 L=2U W=2U AS=1.3P AD=0.84P PS=5.3U PD=2.84U
M$4 VDD VDD VDD VDD pfet_03v3 L=2U W=2U AS=0.84P AD=1.3P PS=2.84U PD=5.3U
M$5 VDD VDD VDD VDD pfet_03v3 L=2U W=2U AS=1.3P AD=0.84P PS=5.3U PD=2.84U
M$6 VDD VDD VDD VDD pfet_03v3 L=2U W=2U AS=0.84P AD=1.3P PS=2.84U PD=5.3U
M$7 VDD VDD VDD VDD pfet_03v3 L=2U W=2U AS=1.3P AD=0.84P PS=5.3U PD=2.84U
M$8 VDD VDD VDD VDD pfet_03v3 L=2U W=2U AS=0.84P AD=1.3P PS=2.84U PD=5.3U
M$9 VDD VDD VDD VDD pfet_03v3 L=2U W=2U AS=1.3P AD=0.84P PS=5.3U PD=2.84U
M$10 VDD VDD VDD VDD pfet_03v3 L=2U W=2U AS=0.84P AD=1.3P PS=2.84U PD=5.3U
M$11 VDD VDD VDD VDD pfet_03v3 L=2U W=2U AS=1.3P AD=0.84P PS=5.3U PD=2.84U
M$12 VDD VDD VDD VDD pfet_03v3 L=2U W=2U AS=0.84P AD=1.3P PS=2.84U PD=5.3U
M$13 VDD VDD VDD VDD pfet_03v3 L=2U W=2U AS=1.3P AD=0.84P PS=5.3U PD=2.84U
M$14 VDD VDD VDD VDD pfet_03v3 L=2U W=2U AS=0.84P AD=1.3P PS=2.84U PD=5.3U
M$15 VDD VDD VDD VDD pfet_03v3 L=2U W=2U AS=1.3P AD=0.84P PS=5.3U PD=2.84U
M$16 VDD VDD VDD VDD pfet_03v3 L=2U W=2U AS=0.84P AD=1.3P PS=2.84U PD=5.3U
M$17 VDD VDD VDD VDD pfet_03v3 L=2U W=2U AS=1.3P AD=0.84P PS=5.3U PD=2.84U
M$18 VDD VDD VDD VDD pfet_03v3 L=2U W=2U AS=0.84P AD=1.3P PS=2.84U PD=5.3U
M$19 VDD VDD VDD VDD pfet_03v3 L=2U W=2U AS=1.3P AD=0.84P PS=5.3U PD=2.84U
M$20 VDD VDD VDD VDD pfet_03v3 L=2U W=2U AS=0.84P AD=1.3P PS=2.84U PD=5.3U
M$21 VDD VDD VDD VDD pfet_03v3 L=2U W=2U AS=1.3P AD=0.84P PS=5.3U PD=2.84U
M$22 VDD VDD VDD VDD pfet_03v3 L=2U W=2U AS=0.84P AD=1.3P PS=2.84U PD=5.3U
M$23 VDD VDD VDD VDD pfet_03v3 L=2U W=2U AS=1.3P AD=0.84P PS=5.3U PD=2.84U
M$24 VDD VDD VDD VDD pfet_03v3 L=2U W=2U AS=0.84P AD=1.3P PS=2.84U PD=5.3U
M$25 VDD VDD VDD VDD pfet_03v3 L=2U W=2U AS=1.3P AD=0.84P PS=5.3U PD=2.84U
M$26 VDD VDD VDD VDD pfet_03v3 L=2U W=2U AS=0.84P AD=1.3P PS=2.84U PD=5.3U
M$27 VDD VDD VDD VDD pfet_03v3 L=2U W=2U AS=1.3P AD=0.84P PS=5.3U PD=2.84U
M$28 VDD VDD VDD VDD pfet_03v3 L=2U W=2U AS=0.84P AD=1.3P PS=2.84U PD=5.3U
M$29 VDD VDD VDD VDD pfet_03v3 L=2U W=2U AS=1.3P AD=0.84P PS=5.3U PD=2.84U
M$30 VDD VDD VDD VDD pfet_03v3 L=2U W=2U AS=0.84P AD=1.3P PS=2.84U PD=5.3U
M$31 VDD VDD VDD VDD pfet_03v3 L=2U W=2U AS=1.3P AD=0.84P PS=5.3U PD=2.84U
M$32 VDD VDD VDD VDD pfet_03v3 L=2U W=2U AS=0.84P AD=1.3P PS=2.84U PD=5.3U
M$33 VDD VDD VDD VDD pfet_03v3 L=2U W=2U AS=1.3P AD=0.84P PS=5.3U PD=2.84U
M$34 VDD VDD VDD VDD pfet_03v3 L=2U W=2U AS=0.84P AD=1.3P PS=2.84U PD=5.3U
M$35 VDD VDD VDD VDD pfet_03v3 L=2U W=2U AS=1.3P AD=0.84P PS=5.3U PD=2.84U
M$36 VDD VDD VDD VDD pfet_03v3 L=2U W=2U AS=0.84P AD=1.3P PS=2.84U PD=5.3U
M$37 VDD VDD VDD VDD pfet_03v3 L=2U W=2U AS=1.3P AD=0.84P PS=5.3U PD=2.84U
M$38 VDD VDD VDD VDD pfet_03v3 L=2U W=2U AS=0.84P AD=1.3P PS=2.84U PD=5.3U
M$39 VDD VDD VDD VDD pfet_03v3 L=2U W=2U AS=1.3P AD=0.84P PS=5.3U PD=2.84U
M$40 VDD VDD VDD VDD pfet_03v3 L=2U W=2U AS=0.84P AD=1.3P PS=2.84U PD=5.3U
M$41 VDD VDD VDD VDD pfet_03v3 L=2U W=2U AS=1.3P AD=0.84P PS=5.3U PD=2.84U
M$42 VDD VDD VDD VDD pfet_03v3 L=2U W=2U AS=0.84P AD=1.3P PS=2.84U PD=5.3U
M$43 VDD VDD VDD VDD pfet_03v3 L=2U W=2U AS=1.3P AD=0.84P PS=5.3U PD=2.84U
M$44 VDD VDD VDD VDD pfet_03v3 L=2U W=2U AS=0.84P AD=1.3P PS=2.84U PD=5.3U
M$45 VDD VDD VDD VDD pfet_03v3 L=2U W=2U AS=1.3P AD=0.84P PS=5.3U PD=2.84U
M$46 VDD VDD VDD VDD pfet_03v3 L=2U W=2U AS=0.84P AD=1.3P PS=2.84U PD=5.3U
M$47 VDD VDD VDD VDD pfet_03v3 L=2U W=2U AS=1.3P AD=0.84P PS=5.3U PD=2.84U
M$48 VDD VDD VDD VDD pfet_03v3 L=2U W=2U AS=0.84P AD=1.3P PS=2.84U PD=5.3U
M$49 VDD VDD VDD VDD pfet_03v3 L=2U W=2U AS=1.3P AD=0.84P PS=5.3U PD=2.84U
M$50 VDD VDD VDD VDD pfet_03v3 L=2U W=2U AS=0.84P AD=1.3P PS=2.84U PD=5.3U
M$51 VDD VDD VDD VDD pfet_03v3 L=2U W=2U AS=1.3P AD=0.84P PS=5.3U PD=2.84U
M$52 VDD VDD VDD VDD pfet_03v3 L=2U W=2U AS=0.84P AD=1.3P PS=2.84U PD=5.3U
M$53 VDD VDD VDD VDD pfet_03v3 L=2U W=2U AS=1.3P AD=0.84P PS=5.3U PD=2.84U
M$54 VDD VDD VDD VDD pfet_03v3 L=2U W=2U AS=0.84P AD=1.3P PS=2.84U PD=5.3U
M$55 VDD VDD VDD VDD pfet_03v3 L=2U W=2U AS=1.3P AD=0.84P PS=5.3U PD=2.84U
M$56 VDD VDD VDD VDD pfet_03v3 L=2U W=2U AS=0.84P AD=1.3P PS=2.84U PD=5.3U
M$57 VDD VDD VDD VDD pfet_03v3 L=2U W=2U AS=1.3P AD=0.84P PS=5.3U PD=2.84U
M$58 VDD VDD VDD VDD pfet_03v3 L=2U W=2U AS=0.84P AD=1.3P PS=2.84U PD=5.3U
M$59 VDD VDD VDD VDD pfet_03v3 L=2U W=2U AS=1.3P AD=0.84P PS=5.3U PD=2.84U
M$60 VDD VDD VDD VDD pfet_03v3 L=2U W=2U AS=0.84P AD=1.3P PS=2.84U PD=5.3U
M$61 VDD VDD VDD VDD pfet_03v3 L=2U W=2U AS=1.3P AD=0.84P PS=5.3U PD=2.84U
M$62 VDD VDD VDD VDD pfet_03v3 L=2U W=2U AS=0.84P AD=1.3P PS=2.84U PD=5.3U
M$63 VDD VDD VDD VDD pfet_03v3 L=2U W=2U AS=1.3P AD=0.84P PS=5.3U PD=2.84U
M$64 VDD VDD VDD VDD pfet_03v3 L=2U W=2U AS=0.84P AD=1.3P PS=2.84U PD=5.3U
M$65 VDD VDD VDD VDD pfet_03v3 L=2U W=2U AS=1.3P AD=0.84P PS=5.3U PD=2.84U
M$66 VDD VDD VDD VDD pfet_03v3 L=2U W=2U AS=0.84P AD=1.3P PS=2.84U PD=5.3U
M$67 VDD VDD VDD VDD pfet_03v3 L=2U W=2U AS=1.3P AD=0.84P PS=5.3U PD=2.84U
M$68 VDD VDD VDD VDD pfet_03v3 L=2U W=2U AS=0.84P AD=1.3P PS=2.84U PD=5.3U
M$69 VDD VDD VDD VDD pfet_03v3 L=2U W=2U AS=1.3P AD=0.84P PS=5.3U PD=2.84U
M$70 VDD VDD VDD VDD pfet_03v3 L=2U W=2U AS=0.84P AD=1.3P PS=2.84U PD=5.3U
M$71 VDD VDD VDD VDD pfet_03v3 L=2U W=2U AS=1.3P AD=0.84P PS=5.3U PD=2.84U
M$72 VDD VDD VDD VDD pfet_03v3 L=2U W=2U AS=0.84P AD=1.3P PS=2.84U PD=5.3U
M$73 VDD VDD VDD VDD pfet_03v3 L=2U W=2U AS=1.3P AD=0.84P PS=5.3U PD=2.84U
M$74 VDD VDD VDD VDD pfet_03v3 L=2U W=2U AS=0.84P AD=1.3P PS=2.84U PD=5.3U
M$75 VDD VDD VDD VDD pfet_03v3 L=2U W=2U AS=1.3P AD=0.84P PS=5.3U PD=2.84U
M$76 VDD VDD VDD VDD pfet_03v3 L=2U W=2U AS=0.84P AD=1.3P PS=2.84U PD=5.3U
M$77 VDD VDD VDD VDD pfet_03v3 L=2U W=2U AS=1.3P AD=0.84P PS=5.3U PD=2.84U
M$78 VDD VDD VDD VDD pfet_03v3 L=2U W=2U AS=0.84P AD=1.3P PS=2.84U PD=5.3U
M$79 VDD VDD VDD VDD pfet_03v3 L=2U W=2U AS=1.3P AD=0.84P PS=5.3U PD=2.84U
M$80 VDD VDD VDD VDD pfet_03v3 L=2U W=2U AS=0.84P AD=1.3P PS=2.84U PD=5.3U
M$81 VDD VDD VDD VDD pfet_03v3 L=2U W=2U AS=1.3P AD=0.84P PS=5.3U PD=2.84U
M$82 VDD VDD VDD VDD pfet_03v3 L=2U W=2U AS=0.84P AD=1.3P PS=2.84U PD=5.3U
M$83 VDD VDD VDD VDD pfet_03v3 L=2U W=2U AS=1.3P AD=0.84P PS=5.3U PD=2.84U
M$84 VDD VDD VDD VDD pfet_03v3 L=2U W=2U AS=0.84P AD=1.3P PS=2.84U PD=5.3U
M$85 VDD VDD VDD VDD pfet_03v3 L=2U W=2U AS=1.3P AD=0.84P PS=5.3U PD=2.84U
M$86 VDD VDD VDD VDD pfet_03v3 L=2U W=2U AS=0.84P AD=1.3P PS=2.84U PD=5.3U
M$87 VDD VDD VDD VDD pfet_03v3 L=2U W=2U AS=1.3P AD=0.84P PS=5.3U PD=2.84U
M$88 VDD VDD VDD VDD pfet_03v3 L=2U W=2U AS=0.84P AD=1.3P PS=2.84U PD=5.3U
M$89 VDD VDD VDD VDD pfet_03v3 L=2U W=2U AS=1.3P AD=0.84P PS=5.3U PD=2.84U
M$90 VDD VDD VDD VDD pfet_03v3 L=2U W=2U AS=0.84P AD=1.3P PS=2.84U PD=5.3U
M$91 VDD VDD VDD VDD pfet_03v3 L=2U W=2U AS=1.3P AD=0.84P PS=5.3U PD=2.84U
M$92 VDD VDD VDD VDD pfet_03v3 L=2U W=2U AS=0.84P AD=1.3P PS=2.84U PD=5.3U
M$93 VDD VDD VDD VDD pfet_03v3 L=2U W=2U AS=1.3P AD=0.84P PS=5.3U PD=2.84U
M$94 VDD VDD VDD VDD pfet_03v3 L=2U W=2U AS=0.84P AD=1.3P PS=2.84U PD=5.3U
M$95 VDD VDD VDD VDD pfet_03v3 L=2U W=2U AS=1.3P AD=0.84P PS=5.3U PD=2.84U
M$96 VDD VDD VDD VDD pfet_03v3 L=2U W=2U AS=0.84P AD=1.3P PS=2.84U PD=5.3U
M$97 VDD VDD VDD VDD pfet_03v3 L=2U W=2U AS=1.3P AD=0.84P PS=5.3U PD=2.84U
M$98 VDD VDD VDD VDD pfet_03v3 L=2U W=2U AS=0.84P AD=1.3P PS=2.84U PD=5.3U
M$99 VDD VDD VDD VDD pfet_03v3 L=2U W=2U AS=1.3P AD=0.84P PS=5.3U PD=2.84U
M$100 VDD VDD VDD VDD pfet_03v3 L=2U W=2U AS=0.84P AD=1.3P PS=2.84U PD=5.3U
M$101 VDD VDD VDD VDD pfet_03v3 L=2U W=2U AS=1.3P AD=0.84P PS=5.3U PD=2.84U
M$102 VDD VDD VDD VDD pfet_03v3 L=2U W=2U AS=0.84P AD=1.3P PS=2.84U PD=5.3U
M$103 VDD VDD VDD VDD pfet_03v3 L=2U W=2U AS=1.3P AD=0.84P PS=5.3U PD=2.84U
M$104 VDD VDD VDD VDD pfet_03v3 L=2U W=2U AS=0.84P AD=1.3P PS=2.84U PD=5.3U
M$105 VDD VDD VDD VDD pfet_03v3 L=2U W=2U AS=1.3P AD=0.84P PS=5.3U PD=2.84U
M$106 VDD VDD VDD VDD pfet_03v3 L=2U W=2U AS=0.84P AD=1.3P PS=2.84U PD=5.3U
M$107 VDD VDD VDD VDD pfet_03v3 L=2U W=2U AS=1.3P AD=0.84P PS=5.3U PD=2.84U
M$108 VDD VDD VDD VDD pfet_03v3 L=2U W=2U AS=0.84P AD=1.3P PS=2.84U PD=5.3U
M$109 VDD VDD VDD VDD pfet_03v3 L=2U W=2U AS=1.3P AD=0.84P PS=5.3U PD=2.84U
M$110 VDD VDD VDD VDD pfet_03v3 L=2U W=2U AS=0.84P AD=1.3P PS=2.84U PD=5.3U
M$111 VDD VDD VDD VDD pfet_03v3 L=2U W=2U AS=1.3P AD=0.84P PS=5.3U PD=2.84U
M$112 VDD VDD VDD VDD pfet_03v3 L=2U W=2U AS=0.84P AD=1.3P PS=2.84U PD=5.3U
M$113 VDD VDD VDD VDD pfet_03v3 L=2U W=2U AS=1.3P AD=0.84P PS=5.3U PD=2.84U
M$114 VDD VDD VDD VDD pfet_03v3 L=2U W=2U AS=0.84P AD=1.3P PS=2.84U PD=5.3U
M$115 VDD VDD VDD VDD pfet_03v3 L=2U W=2U AS=1.3P AD=0.84P PS=5.3U PD=2.84U
M$116 VDD VDD VDD VDD pfet_03v3 L=2U W=2U AS=0.84P AD=1.3P PS=2.84U PD=5.3U
M$117 VDD VDD VDD VDD pfet_03v3 L=2U W=2U AS=1.3P AD=0.84P PS=5.3U PD=2.84U
M$118 VDD VDD VDD VDD pfet_03v3 L=2U W=2U AS=0.84P AD=1.3P PS=2.84U PD=5.3U
M$119 VDD VDD VDD VDD pfet_03v3 L=2U W=2U AS=1.3P AD=0.84P PS=5.3U PD=2.84U
M$120 VDD VDD VDD VDD pfet_03v3 L=2U W=2U AS=0.84P AD=1.3P PS=2.84U PD=5.3U
M$121 VDD VDD VDD VDD pfet_03v3 L=2U W=2U AS=1.3P AD=0.84P PS=5.3U PD=2.84U
M$122 VDD VDD VDD VDD pfet_03v3 L=2U W=2U AS=0.84P AD=1.3P PS=2.84U PD=5.3U
M$123 \$145 \$180 \$925 VDD pfet_03v3 L=2U W=2U AS=1.3P AD=0.84P PS=5.3U
+ PD=2.84U
M$124 VDD \$180 \$145 VDD pfet_03v3 L=2U W=2U AS=0.84P AD=1.3P PS=2.84U PD=5.3U
M$125 \$146 \$180 VDD VDD pfet_03v3 L=2U W=2U AS=1.3P AD=0.84P PS=5.3U PD=2.84U
M$126 \$180 \$180 \$146 VDD pfet_03v3 L=2U W=2U AS=0.84P AD=1.3P PS=2.84U
+ PD=5.3U
M$127 VDD VDD VDD VDD pfet_03v3 L=2U W=2U AS=1.3P AD=0.84P PS=5.3U PD=2.84U
M$128 VDD VDD VDD VDD pfet_03v3 L=2U W=2U AS=0.84P AD=1.3P PS=2.84U PD=5.3U
M$129 VDD VDD VDD VDD pfet_03v3 L=2U W=2U AS=1.3P AD=0.84P PS=5.3U PD=2.84U
M$130 VDD VDD VDD VDD pfet_03v3 L=2U W=2U AS=0.84P AD=1.3P PS=2.84U PD=5.3U
M$131 \$147 \$34 \$10 VDD pfet_03v3 L=2U W=2U AS=1.3P AD=0.84P PS=5.3U PD=2.84U
M$132 \$148 \$34 \$147 VDD pfet_03v3 L=2U W=2U AS=0.84P AD=1.3P PS=2.84U PD=5.3U
M$133 \$149 \$34 \$125 VDD pfet_03v3 L=2U W=2U AS=1.3P AD=0.84P PS=5.3U PD=2.84U
M$134 \$6 \$34 \$149 VDD pfet_03v3 L=2U W=2U AS=0.84P AD=1.3P PS=2.84U PD=5.3U
M$135 VDD VDD VDD VDD pfet_03v3 L=2U W=2U AS=1.3P AD=0.84P PS=5.3U PD=2.84U
M$136 VDD VDD VDD VDD pfet_03v3 L=2U W=2U AS=0.84P AD=1.3P PS=2.84U PD=5.3U
M$137 VDD VDD VDD VDD pfet_03v3 L=2U W=2U AS=1.3P AD=0.84P PS=5.3U PD=2.84U
M$138 VDD VDD VDD VDD pfet_03v3 L=2U W=2U AS=0.84P AD=1.3P PS=2.84U PD=5.3U
M$139 \$150 \$181 \$34 VDD pfet_03v3 L=2U W=2U AS=1.3P AD=0.84P PS=5.3U PD=2.84U
M$140 \$39 \$181 \$150 VDD pfet_03v3 L=2U W=2U AS=0.84P AD=1.3P PS=2.84U PD=5.3U
M$141 \$151 \$266 \$39 VDD pfet_03v3 L=2U W=2U AS=1.3P AD=0.84P PS=5.3U PD=2.84U
M$142 \$265 \$266 \$151 VDD pfet_03v3 L=2U W=2U AS=0.84P AD=1.3P PS=2.84U
+ PD=5.3U
M$143 VDD VDD VDD VDD pfet_03v3 L=2U W=2U AS=1.3P AD=0.84P PS=5.3U PD=2.84U
M$144 VDD VDD VDD VDD pfet_03v3 L=2U W=2U AS=0.84P AD=1.3P PS=2.84U PD=5.3U
M$145 VDD VDD VDD VDD pfet_03v3 L=2U W=2U AS=1.3P AD=0.84P PS=5.3U PD=2.84U
M$146 VDD VDD VDD VDD pfet_03v3 L=2U W=2U AS=0.84P AD=1.3P PS=2.84U PD=5.3U
M$147 \$152 \$182 \$927 VDD pfet_03v3 L=2U W=2U AS=1.3P AD=0.84P PS=5.3U
+ PD=2.84U
M$148 VDD \$182 \$152 VDD pfet_03v3 L=2U W=2U AS=0.84P AD=1.3P PS=2.84U PD=5.3U
M$149 \$153 \$182 VDD VDD pfet_03v3 L=2U W=2U AS=1.3P AD=0.84P PS=5.3U PD=2.84U
M$150 \$182 \$182 \$153 VDD pfet_03v3 L=2U W=2U AS=0.84P AD=1.3P PS=2.84U
+ PD=5.3U
M$151 VDD VDD VDD VDD pfet_03v3 L=2U W=2U AS=1.3P AD=0.84P PS=5.3U PD=2.84U
M$152 VDD VDD VDD VDD pfet_03v3 L=2U W=2U AS=0.84P AD=1.3P PS=2.84U PD=5.3U
M$153 VDD VDD VDD VDD pfet_03v3 L=2U W=2U AS=1.3P AD=0.84P PS=5.3U PD=2.84U
M$154 VDD VDD VDD VDD pfet_03v3 L=2U W=2U AS=0.84P AD=1.3P PS=2.84U PD=5.3U
M$155 \$154 \$35 \$11 VDD pfet_03v3 L=2U W=2U AS=1.3P AD=0.84P PS=5.3U PD=2.84U
M$156 \$155 \$35 \$154 VDD pfet_03v3 L=2U W=2U AS=0.84P AD=1.3P PS=2.84U PD=5.3U
M$157 \$156 \$35 \$126 VDD pfet_03v3 L=2U W=2U AS=1.3P AD=0.84P PS=5.3U PD=2.84U
M$158 \$10 \$35 \$156 VDD pfet_03v3 L=2U W=2U AS=0.84P AD=1.3P PS=2.84U PD=5.3U
M$159 VDD VDD VDD VDD pfet_03v3 L=2U W=2U AS=1.3P AD=0.84P PS=5.3U PD=2.84U
M$160 VDD VDD VDD VDD pfet_03v3 L=2U W=2U AS=0.84P AD=1.3P PS=2.84U PD=5.3U
M$161 VDD VDD VDD VDD pfet_03v3 L=2U W=2U AS=1.3P AD=0.84P PS=5.3U PD=2.84U
M$162 VDD VDD VDD VDD pfet_03v3 L=2U W=2U AS=0.84P AD=1.3P PS=2.84U PD=5.3U
M$163 \$157 \$183 \$35 VDD pfet_03v3 L=2U W=2U AS=1.3P AD=0.84P PS=5.3U PD=2.84U
M$164 \$40 \$183 \$157 VDD pfet_03v3 L=2U W=2U AS=0.84P AD=1.3P PS=2.84U PD=5.3U
M$165 \$158 \$268 \$40 VDD pfet_03v3 L=2U W=2U AS=1.3P AD=0.84P PS=5.3U PD=2.84U
M$166 \$267 \$268 \$158 VDD pfet_03v3 L=2U W=2U AS=0.84P AD=1.3P PS=2.84U
+ PD=5.3U
M$167 VDD VDD VDD VDD pfet_03v3 L=2U W=2U AS=1.3P AD=0.84P PS=5.3U PD=2.84U
M$168 VDD VDD VDD VDD pfet_03v3 L=2U W=2U AS=0.84P AD=1.3P PS=2.84U PD=5.3U
M$169 VDD VDD VDD VDD pfet_03v3 L=2U W=2U AS=1.3P AD=0.84P PS=5.3U PD=2.84U
M$170 VDD VDD VDD VDD pfet_03v3 L=2U W=2U AS=0.84P AD=1.3P PS=2.84U PD=5.3U
M$171 \$159 \$184 \$929 VDD pfet_03v3 L=2U W=2U AS=1.3P AD=0.84P PS=5.3U
+ PD=2.84U
M$172 VDD \$184 \$159 VDD pfet_03v3 L=2U W=2U AS=0.84P AD=1.3P PS=2.84U PD=5.3U
M$173 \$160 \$184 VDD VDD pfet_03v3 L=2U W=2U AS=1.3P AD=0.84P PS=5.3U PD=2.84U
M$174 \$184 \$184 \$160 VDD pfet_03v3 L=2U W=2U AS=0.84P AD=1.3P PS=2.84U
+ PD=5.3U
M$175 VDD VDD VDD VDD pfet_03v3 L=2U W=2U AS=1.3P AD=0.84P PS=5.3U PD=2.84U
M$176 VDD VDD VDD VDD pfet_03v3 L=2U W=2U AS=0.84P AD=1.3P PS=2.84U PD=5.3U
M$177 VDD VDD VDD VDD pfet_03v3 L=2U W=2U AS=1.3P AD=0.84P PS=5.3U PD=2.84U
M$178 VDD VDD VDD VDD pfet_03v3 L=2U W=2U AS=0.84P AD=1.3P PS=2.84U PD=5.3U
M$179 \$161 \$36 \$12 VDD pfet_03v3 L=2U W=2U AS=1.3P AD=0.84P PS=5.3U PD=2.84U
M$180 \$162 \$36 \$161 VDD pfet_03v3 L=2U W=2U AS=0.84P AD=1.3P PS=2.84U PD=5.3U
M$181 \$163 \$36 \$127 VDD pfet_03v3 L=2U W=2U AS=1.3P AD=0.84P PS=5.3U PD=2.84U
M$182 \$11 \$36 \$163 VDD pfet_03v3 L=2U W=2U AS=0.84P AD=1.3P PS=2.84U PD=5.3U
M$183 VDD VDD VDD VDD pfet_03v3 L=2U W=2U AS=1.3P AD=0.84P PS=5.3U PD=2.84U
M$184 VDD VDD VDD VDD pfet_03v3 L=2U W=2U AS=0.84P AD=1.3P PS=2.84U PD=5.3U
M$185 VDD VDD VDD VDD pfet_03v3 L=2U W=2U AS=1.3P AD=0.84P PS=5.3U PD=2.84U
M$186 VDD VDD VDD VDD pfet_03v3 L=2U W=2U AS=0.84P AD=1.3P PS=2.84U PD=5.3U
M$187 \$164 \$185 \$36 VDD pfet_03v3 L=2U W=2U AS=1.3P AD=0.84P PS=5.3U PD=2.84U
M$188 \$41 \$185 \$164 VDD pfet_03v3 L=2U W=2U AS=0.84P AD=1.3P PS=2.84U PD=5.3U
M$189 \$165 \$270 \$41 VDD pfet_03v3 L=2U W=2U AS=1.3P AD=0.84P PS=5.3U PD=2.84U
M$190 \$269 \$270 \$165 VDD pfet_03v3 L=2U W=2U AS=0.84P AD=1.3P PS=2.84U
+ PD=5.3U
M$191 VDD VDD VDD VDD pfet_03v3 L=2U W=2U AS=1.3P AD=0.84P PS=5.3U PD=2.84U
M$192 VDD VDD VDD VDD pfet_03v3 L=2U W=2U AS=0.84P AD=1.3P PS=2.84U PD=5.3U
M$193 VDD VDD VDD VDD pfet_03v3 L=2U W=2U AS=1.3P AD=0.84P PS=5.3U PD=2.84U
M$194 VDD VDD VDD VDD pfet_03v3 L=2U W=2U AS=0.84P AD=1.3P PS=2.84U PD=5.3U
M$195 \$166 \$186 \$931 VDD pfet_03v3 L=2U W=2U AS=1.3P AD=0.84P PS=5.3U
+ PD=2.84U
M$196 VDD \$186 \$166 VDD pfet_03v3 L=2U W=2U AS=0.84P AD=1.3P PS=2.84U PD=5.3U
M$197 \$167 \$186 VDD VDD pfet_03v3 L=2U W=2U AS=1.3P AD=0.84P PS=5.3U PD=2.84U
M$198 \$186 \$186 \$167 VDD pfet_03v3 L=2U W=2U AS=0.84P AD=1.3P PS=2.84U
+ PD=5.3U
M$199 VDD VDD VDD VDD pfet_03v3 L=2U W=2U AS=1.3P AD=0.84P PS=5.3U PD=2.84U
M$200 VDD VDD VDD VDD pfet_03v3 L=2U W=2U AS=0.84P AD=1.3P PS=2.84U PD=5.3U
M$201 VDD VDD VDD VDD pfet_03v3 L=2U W=2U AS=1.3P AD=0.84P PS=5.3U PD=2.84U
M$202 VDD VDD VDD VDD pfet_03v3 L=2U W=2U AS=0.84P AD=1.3P PS=2.84U PD=5.3U
M$203 \$168 \$37 \$13 VDD pfet_03v3 L=2U W=2U AS=1.3P AD=0.84P PS=5.3U PD=2.84U
M$204 \$169 \$37 \$168 VDD pfet_03v3 L=2U W=2U AS=0.84P AD=1.3P PS=2.84U PD=5.3U
M$205 \$170 \$37 \$128 VDD pfet_03v3 L=2U W=2U AS=1.3P AD=0.84P PS=5.3U PD=2.84U
M$206 \$12 \$37 \$170 VDD pfet_03v3 L=2U W=2U AS=0.84P AD=1.3P PS=2.84U PD=5.3U
M$207 VDD VDD VDD VDD pfet_03v3 L=2U W=2U AS=1.3P AD=0.84P PS=5.3U PD=2.84U
M$208 VDD VDD VDD VDD pfet_03v3 L=2U W=2U AS=0.84P AD=1.3P PS=2.84U PD=5.3U
M$209 VDD VDD VDD VDD pfet_03v3 L=2U W=2U AS=1.3P AD=0.84P PS=5.3U PD=2.84U
M$210 VDD VDD VDD VDD pfet_03v3 L=2U W=2U AS=0.84P AD=1.3P PS=2.84U PD=5.3U
M$211 \$171 \$187 \$37 VDD pfet_03v3 L=2U W=2U AS=1.3P AD=0.84P PS=5.3U PD=2.84U
M$212 \$42 \$187 \$171 VDD pfet_03v3 L=2U W=2U AS=0.84P AD=1.3P PS=2.84U PD=5.3U
M$213 \$172 \$272 \$42 VDD pfet_03v3 L=2U W=2U AS=1.3P AD=0.84P PS=5.3U PD=2.84U
M$214 \$271 \$272 \$172 VDD pfet_03v3 L=2U W=2U AS=0.84P AD=1.3P PS=2.84U
+ PD=5.3U
M$215 VDD VDD VDD VDD pfet_03v3 L=2U W=2U AS=1.3P AD=0.84P PS=5.3U PD=2.84U
M$216 VDD VDD VDD VDD pfet_03v3 L=2U W=2U AS=0.84P AD=1.3P PS=2.84U PD=5.3U
M$217 VDD VDD VDD VDD pfet_03v3 L=2U W=2U AS=1.3P AD=0.84P PS=5.3U PD=2.84U
M$218 VDD VDD VDD VDD pfet_03v3 L=2U W=2U AS=0.84P AD=1.3P PS=2.84U PD=5.3U
M$219 \$173 \$188 \$933 VDD pfet_03v3 L=2U W=2U AS=1.3P AD=0.84P PS=5.3U
+ PD=2.84U
M$220 VDD \$188 \$173 VDD pfet_03v3 L=2U W=2U AS=0.84P AD=1.3P PS=2.84U PD=5.3U
M$221 \$174 \$188 VDD VDD pfet_03v3 L=2U W=2U AS=1.3P AD=0.84P PS=5.3U PD=2.84U
M$222 \$188 \$188 \$174 VDD pfet_03v3 L=2U W=2U AS=0.84P AD=1.3P PS=2.84U
+ PD=5.3U
M$223 VDD VDD VDD VDD pfet_03v3 L=2U W=2U AS=1.3P AD=0.84P PS=5.3U PD=2.84U
M$224 VDD VDD VDD VDD pfet_03v3 L=2U W=2U AS=0.84P AD=1.3P PS=2.84U PD=5.3U
M$225 VDD VDD VDD VDD pfet_03v3 L=2U W=2U AS=1.3P AD=0.84P PS=5.3U PD=2.84U
M$226 VDD VDD VDD VDD pfet_03v3 L=2U W=2U AS=0.84P AD=1.3P PS=2.84U PD=5.3U
M$227 \$175 \$38 VCM VDD pfet_03v3 L=2U W=2U AS=1.3P AD=0.84P PS=5.3U PD=2.84U
M$228 \$176 \$38 \$175 VDD pfet_03v3 L=2U W=2U AS=0.84P AD=1.3P PS=2.84U PD=5.3U
M$229 \$177 \$38 \$129 VDD pfet_03v3 L=2U W=2U AS=1.3P AD=0.84P PS=5.3U PD=2.84U
M$230 \$13 \$38 \$177 VDD pfet_03v3 L=2U W=2U AS=0.84P AD=1.3P PS=2.84U PD=5.3U
M$231 VDD VDD VDD VDD pfet_03v3 L=2U W=2U AS=1.3P AD=0.84P PS=5.3U PD=2.84U
M$232 VDD VDD VDD VDD pfet_03v3 L=2U W=2U AS=0.84P AD=1.3P PS=2.84U PD=5.3U
M$233 VDD VDD VDD VDD pfet_03v3 L=2U W=2U AS=1.3P AD=0.84P PS=5.3U PD=2.84U
M$234 VDD VDD VDD VDD pfet_03v3 L=2U W=2U AS=0.84P AD=1.3P PS=2.84U PD=5.3U
M$235 \$178 \$189 \$38 VDD pfet_03v3 L=2U W=2U AS=1.3P AD=0.84P PS=5.3U PD=2.84U
M$236 \$43 \$189 \$178 VDD pfet_03v3 L=2U W=2U AS=0.84P AD=1.3P PS=2.84U PD=5.3U
M$237 \$179 \$274 \$43 VDD pfet_03v3 L=2U W=2U AS=1.3P AD=0.84P PS=5.3U PD=2.84U
M$238 \$273 \$274 \$179 VDD pfet_03v3 L=2U W=2U AS=0.84P AD=1.3P PS=2.84U
+ PD=5.3U
M$239 VDD VDD VDD VDD pfet_03v3 L=2U W=2U AS=1.3P AD=0.84P PS=5.3U PD=2.84U
M$240 VDD VDD VDD VDD pfet_03v3 L=2U W=2U AS=0.84P AD=1.3P PS=2.84U PD=5.3U
M$241 VDD VDD VDD VDD pfet_03v3 L=2U W=2U AS=1.3P AD=0.84P PS=5.3U PD=2.84U
M$242 VDD VDD VDD VDD pfet_03v3 L=2U W=2U AS=0.84P AD=1.3P PS=2.84U PD=5.3U
M$243 \$330 \$180 \$180 VDD pfet_03v3 L=2U W=2U AS=1.3P AD=0.84P PS=5.3U
+ PD=2.84U
M$244 VDD \$180 \$330 VDD pfet_03v3 L=2U W=2U AS=0.84P AD=1.3P PS=2.84U PD=5.3U
M$245 \$331 \$180 VDD VDD pfet_03v3 L=2U W=2U AS=1.3P AD=0.84P PS=5.3U PD=2.84U
M$246 \$925 \$180 \$331 VDD pfet_03v3 L=2U W=2U AS=0.84P AD=1.3P PS=2.84U
+ PD=5.3U
M$247 VDD VDD VDD VDD pfet_03v3 L=2U W=2U AS=1.3P AD=0.84P PS=5.3U PD=2.84U
M$248 VDD VDD VDD VDD pfet_03v3 L=2U W=2U AS=0.84P AD=1.3P PS=2.84U PD=5.3U
M$249 VDD VDD VDD VDD pfet_03v3 L=2U W=2U AS=1.3P AD=0.84P PS=5.3U PD=2.84U
M$250 VDD VDD VDD VDD pfet_03v3 L=2U W=2U AS=0.84P AD=1.3P PS=2.84U PD=5.3U
M$251 \$332 \$34 \$181 VDD pfet_03v3 L=2U W=2U AS=1.3P AD=0.84P PS=5.3U PD=2.84U
M$252 VSS \$34 \$332 VDD pfet_03v3 L=2U W=2U AS=0.84P AD=1.3P PS=2.84U PD=5.3U
M$253 \$333 \$34 VSS VDD pfet_03v3 L=2U W=2U AS=1.3P AD=0.84P PS=5.3U PD=2.84U
M$254 \$181 \$34 \$333 VDD pfet_03v3 L=2U W=2U AS=0.84P AD=1.3P PS=2.84U PD=5.3U
M$255 VDD VDD VDD VDD pfet_03v3 L=2U W=2U AS=1.3P AD=0.84P PS=5.3U PD=2.84U
M$256 VDD VDD VDD VDD pfet_03v3 L=2U W=2U AS=0.84P AD=1.3P PS=2.84U PD=5.3U
M$257 VDD VDD VDD VDD pfet_03v3 L=2U W=2U AS=1.3P AD=0.84P PS=5.3U PD=2.84U
M$258 VDD VDD VDD VDD pfet_03v3 L=2U W=2U AS=0.84P AD=1.3P PS=2.84U PD=5.3U
M$259 \$334 \$266 \$265 VDD pfet_03v3 L=2U W=2U AS=1.3P AD=0.84P PS=5.3U
+ PD=2.84U
M$260 \$39 \$266 \$334 VDD pfet_03v3 L=2U W=2U AS=0.84P AD=1.3P PS=2.84U PD=5.3U
M$261 \$335 \$181 \$39 VDD pfet_03v3 L=2U W=2U AS=1.3P AD=0.84P PS=5.3U PD=2.84U
M$262 \$34 \$181 \$335 VDD pfet_03v3 L=2U W=2U AS=0.84P AD=1.3P PS=2.84U PD=5.3U
M$263 VDD VDD VDD VDD pfet_03v3 L=2U W=2U AS=1.3P AD=0.84P PS=5.3U PD=2.84U
M$264 VDD VDD VDD VDD pfet_03v3 L=2U W=2U AS=0.84P AD=1.3P PS=2.84U PD=5.3U
M$265 VDD VDD VDD VDD pfet_03v3 L=2U W=2U AS=1.3P AD=0.84P PS=5.3U PD=2.84U
M$266 VDD VDD VDD VDD pfet_03v3 L=2U W=2U AS=0.84P AD=1.3P PS=2.84U PD=5.3U
M$267 \$336 \$182 \$182 VDD pfet_03v3 L=2U W=2U AS=1.3P AD=0.84P PS=5.3U
+ PD=2.84U
M$268 VDD \$182 \$336 VDD pfet_03v3 L=2U W=2U AS=0.84P AD=1.3P PS=2.84U PD=5.3U
M$269 \$337 \$182 VDD VDD pfet_03v3 L=2U W=2U AS=1.3P AD=0.84P PS=5.3U PD=2.84U
M$270 \$927 \$182 \$337 VDD pfet_03v3 L=2U W=2U AS=0.84P AD=1.3P PS=2.84U
+ PD=5.3U
M$271 VDD VDD VDD VDD pfet_03v3 L=2U W=2U AS=1.3P AD=0.84P PS=5.3U PD=2.84U
M$272 VDD VDD VDD VDD pfet_03v3 L=2U W=2U AS=0.84P AD=1.3P PS=2.84U PD=5.3U
M$273 VDD VDD VDD VDD pfet_03v3 L=2U W=2U AS=1.3P AD=0.84P PS=5.3U PD=2.84U
M$274 VDD VDD VDD VDD pfet_03v3 L=2U W=2U AS=0.84P AD=1.3P PS=2.84U PD=5.3U
M$275 \$338 \$35 \$183 VDD pfet_03v3 L=2U W=2U AS=1.3P AD=0.84P PS=5.3U PD=2.84U
M$276 VSS \$35 \$338 VDD pfet_03v3 L=2U W=2U AS=0.84P AD=1.3P PS=2.84U PD=5.3U
M$277 \$339 \$35 VSS VDD pfet_03v3 L=2U W=2U AS=1.3P AD=0.84P PS=5.3U PD=2.84U
M$278 \$183 \$35 \$339 VDD pfet_03v3 L=2U W=2U AS=0.84P AD=1.3P PS=2.84U PD=5.3U
M$279 VDD VDD VDD VDD pfet_03v3 L=2U W=2U AS=1.3P AD=0.84P PS=5.3U PD=2.84U
M$280 VDD VDD VDD VDD pfet_03v3 L=2U W=2U AS=0.84P AD=1.3P PS=2.84U PD=5.3U
M$281 VDD VDD VDD VDD pfet_03v3 L=2U W=2U AS=1.3P AD=0.84P PS=5.3U PD=2.84U
M$282 VDD VDD VDD VDD pfet_03v3 L=2U W=2U AS=0.84P AD=1.3P PS=2.84U PD=5.3U
M$283 \$340 \$268 \$267 VDD pfet_03v3 L=2U W=2U AS=1.3P AD=0.84P PS=5.3U
+ PD=2.84U
M$284 \$40 \$268 \$340 VDD pfet_03v3 L=2U W=2U AS=0.84P AD=1.3P PS=2.84U PD=5.3U
M$285 \$341 \$183 \$40 VDD pfet_03v3 L=2U W=2U AS=1.3P AD=0.84P PS=5.3U PD=2.84U
M$286 \$35 \$183 \$341 VDD pfet_03v3 L=2U W=2U AS=0.84P AD=1.3P PS=2.84U PD=5.3U
M$287 VDD VDD VDD VDD pfet_03v3 L=2U W=2U AS=1.3P AD=0.84P PS=5.3U PD=2.84U
M$288 VDD VDD VDD VDD pfet_03v3 L=2U W=2U AS=0.84P AD=1.3P PS=2.84U PD=5.3U
M$289 VDD VDD VDD VDD pfet_03v3 L=2U W=2U AS=1.3P AD=0.84P PS=5.3U PD=2.84U
M$290 VDD VDD VDD VDD pfet_03v3 L=2U W=2U AS=0.84P AD=1.3P PS=2.84U PD=5.3U
M$291 \$342 \$184 \$184 VDD pfet_03v3 L=2U W=2U AS=1.3P AD=0.84P PS=5.3U
+ PD=2.84U
M$292 VDD \$184 \$342 VDD pfet_03v3 L=2U W=2U AS=0.84P AD=1.3P PS=2.84U PD=5.3U
M$293 \$343 \$184 VDD VDD pfet_03v3 L=2U W=2U AS=1.3P AD=0.84P PS=5.3U PD=2.84U
M$294 \$929 \$184 \$343 VDD pfet_03v3 L=2U W=2U AS=0.84P AD=1.3P PS=2.84U
+ PD=5.3U
M$295 VDD VDD VDD VDD pfet_03v3 L=2U W=2U AS=1.3P AD=0.84P PS=5.3U PD=2.84U
M$296 VDD VDD VDD VDD pfet_03v3 L=2U W=2U AS=0.84P AD=1.3P PS=2.84U PD=5.3U
M$297 VDD VDD VDD VDD pfet_03v3 L=2U W=2U AS=1.3P AD=0.84P PS=5.3U PD=2.84U
M$298 VDD VDD VDD VDD pfet_03v3 L=2U W=2U AS=0.84P AD=1.3P PS=2.84U PD=5.3U
M$299 \$344 \$36 \$185 VDD pfet_03v3 L=2U W=2U AS=1.3P AD=0.84P PS=5.3U PD=2.84U
M$300 VSS \$36 \$344 VDD pfet_03v3 L=2U W=2U AS=0.84P AD=1.3P PS=2.84U PD=5.3U
M$301 \$345 \$36 VSS VDD pfet_03v3 L=2U W=2U AS=1.3P AD=0.84P PS=5.3U PD=2.84U
M$302 \$185 \$36 \$345 VDD pfet_03v3 L=2U W=2U AS=0.84P AD=1.3P PS=2.84U PD=5.3U
M$303 VDD VDD VDD VDD pfet_03v3 L=2U W=2U AS=1.3P AD=0.84P PS=5.3U PD=2.84U
M$304 VDD VDD VDD VDD pfet_03v3 L=2U W=2U AS=0.84P AD=1.3P PS=2.84U PD=5.3U
M$305 VDD VDD VDD VDD pfet_03v3 L=2U W=2U AS=1.3P AD=0.84P PS=5.3U PD=2.84U
M$306 VDD VDD VDD VDD pfet_03v3 L=2U W=2U AS=0.84P AD=1.3P PS=2.84U PD=5.3U
M$307 \$346 \$270 \$269 VDD pfet_03v3 L=2U W=2U AS=1.3P AD=0.84P PS=5.3U
+ PD=2.84U
M$308 \$41 \$270 \$346 VDD pfet_03v3 L=2U W=2U AS=0.84P AD=1.3P PS=2.84U PD=5.3U
M$309 \$347 \$185 \$41 VDD pfet_03v3 L=2U W=2U AS=1.3P AD=0.84P PS=5.3U PD=2.84U
M$310 \$36 \$185 \$347 VDD pfet_03v3 L=2U W=2U AS=0.84P AD=1.3P PS=2.84U PD=5.3U
M$311 VDD VDD VDD VDD pfet_03v3 L=2U W=2U AS=1.3P AD=0.84P PS=5.3U PD=2.84U
M$312 VDD VDD VDD VDD pfet_03v3 L=2U W=2U AS=0.84P AD=1.3P PS=2.84U PD=5.3U
M$313 VDD VDD VDD VDD pfet_03v3 L=2U W=2U AS=1.3P AD=0.84P PS=5.3U PD=2.84U
M$314 VDD VDD VDD VDD pfet_03v3 L=2U W=2U AS=0.84P AD=1.3P PS=2.84U PD=5.3U
M$315 \$348 \$186 \$186 VDD pfet_03v3 L=2U W=2U AS=1.3P AD=0.84P PS=5.3U
+ PD=2.84U
M$316 VDD \$186 \$348 VDD pfet_03v3 L=2U W=2U AS=0.84P AD=1.3P PS=2.84U PD=5.3U
M$317 \$349 \$186 VDD VDD pfet_03v3 L=2U W=2U AS=1.3P AD=0.84P PS=5.3U PD=2.84U
M$318 \$931 \$186 \$349 VDD pfet_03v3 L=2U W=2U AS=0.84P AD=1.3P PS=2.84U
+ PD=5.3U
M$319 VDD VDD VDD VDD pfet_03v3 L=2U W=2U AS=1.3P AD=0.84P PS=5.3U PD=2.84U
M$320 VDD VDD VDD VDD pfet_03v3 L=2U W=2U AS=0.84P AD=1.3P PS=2.84U PD=5.3U
M$321 VDD VDD VDD VDD pfet_03v3 L=2U W=2U AS=1.3P AD=0.84P PS=5.3U PD=2.84U
M$322 VDD VDD VDD VDD pfet_03v3 L=2U W=2U AS=0.84P AD=1.3P PS=2.84U PD=5.3U
M$323 \$350 \$37 \$187 VDD pfet_03v3 L=2U W=2U AS=1.3P AD=0.84P PS=5.3U PD=2.84U
M$324 VSS \$37 \$350 VDD pfet_03v3 L=2U W=2U AS=0.84P AD=1.3P PS=2.84U PD=5.3U
M$325 \$351 \$37 VSS VDD pfet_03v3 L=2U W=2U AS=1.3P AD=0.84P PS=5.3U PD=2.84U
M$326 \$187 \$37 \$351 VDD pfet_03v3 L=2U W=2U AS=0.84P AD=1.3P PS=2.84U PD=5.3U
M$327 VDD VDD VDD VDD pfet_03v3 L=2U W=2U AS=1.3P AD=0.84P PS=5.3U PD=2.84U
M$328 VDD VDD VDD VDD pfet_03v3 L=2U W=2U AS=0.84P AD=1.3P PS=2.84U PD=5.3U
M$329 VDD VDD VDD VDD pfet_03v3 L=2U W=2U AS=1.3P AD=0.84P PS=5.3U PD=2.84U
M$330 VDD VDD VDD VDD pfet_03v3 L=2U W=2U AS=0.84P AD=1.3P PS=2.84U PD=5.3U
M$331 \$352 \$272 \$271 VDD pfet_03v3 L=2U W=2U AS=1.3P AD=0.84P PS=5.3U
+ PD=2.84U
M$332 \$42 \$272 \$352 VDD pfet_03v3 L=2U W=2U AS=0.84P AD=1.3P PS=2.84U PD=5.3U
M$333 \$353 \$187 \$42 VDD pfet_03v3 L=2U W=2U AS=1.3P AD=0.84P PS=5.3U PD=2.84U
M$334 \$37 \$187 \$353 VDD pfet_03v3 L=2U W=2U AS=0.84P AD=1.3P PS=2.84U PD=5.3U
M$335 VDD VDD VDD VDD pfet_03v3 L=2U W=2U AS=1.3P AD=0.84P PS=5.3U PD=2.84U
M$336 VDD VDD VDD VDD pfet_03v3 L=2U W=2U AS=0.84P AD=1.3P PS=2.84U PD=5.3U
M$337 VDD VDD VDD VDD pfet_03v3 L=2U W=2U AS=1.3P AD=0.84P PS=5.3U PD=2.84U
M$338 VDD VDD VDD VDD pfet_03v3 L=2U W=2U AS=0.84P AD=1.3P PS=2.84U PD=5.3U
M$339 \$354 \$188 \$188 VDD pfet_03v3 L=2U W=2U AS=1.3P AD=0.84P PS=5.3U
+ PD=2.84U
M$340 VDD \$188 \$354 VDD pfet_03v3 L=2U W=2U AS=0.84P AD=1.3P PS=2.84U PD=5.3U
M$341 \$355 \$188 VDD VDD pfet_03v3 L=2U W=2U AS=1.3P AD=0.84P PS=5.3U PD=2.84U
M$342 \$933 \$188 \$355 VDD pfet_03v3 L=2U W=2U AS=0.84P AD=1.3P PS=2.84U
+ PD=5.3U
M$343 VDD VDD VDD VDD pfet_03v3 L=2U W=2U AS=1.3P AD=0.84P PS=5.3U PD=2.84U
M$344 VDD VDD VDD VDD pfet_03v3 L=2U W=2U AS=0.84P AD=1.3P PS=2.84U PD=5.3U
M$345 VDD VDD VDD VDD pfet_03v3 L=2U W=2U AS=1.3P AD=0.84P PS=5.3U PD=2.84U
M$346 VDD VDD VDD VDD pfet_03v3 L=2U W=2U AS=0.84P AD=1.3P PS=2.84U PD=5.3U
M$347 \$356 \$38 \$189 VDD pfet_03v3 L=2U W=2U AS=1.3P AD=0.84P PS=5.3U PD=2.84U
M$348 VSS \$38 \$356 VDD pfet_03v3 L=2U W=2U AS=0.84P AD=1.3P PS=2.84U PD=5.3U
M$349 \$357 \$38 VSS VDD pfet_03v3 L=2U W=2U AS=1.3P AD=0.84P PS=5.3U PD=2.84U
M$350 \$189 \$38 \$357 VDD pfet_03v3 L=2U W=2U AS=0.84P AD=1.3P PS=2.84U PD=5.3U
M$351 VDD VDD VDD VDD pfet_03v3 L=2U W=2U AS=1.3P AD=0.84P PS=5.3U PD=2.84U
M$352 VDD VDD VDD VDD pfet_03v3 L=2U W=2U AS=0.84P AD=1.3P PS=2.84U PD=5.3U
M$353 VDD VDD VDD VDD pfet_03v3 L=2U W=2U AS=1.3P AD=0.84P PS=5.3U PD=2.84U
M$354 VDD VDD VDD VDD pfet_03v3 L=2U W=2U AS=0.84P AD=1.3P PS=2.84U PD=5.3U
M$355 \$358 \$274 \$273 VDD pfet_03v3 L=2U W=2U AS=1.3P AD=0.84P PS=5.3U
+ PD=2.84U
M$356 \$43 \$274 \$358 VDD pfet_03v3 L=2U W=2U AS=0.84P AD=1.3P PS=2.84U PD=5.3U
M$357 \$359 \$189 \$43 VDD pfet_03v3 L=2U W=2U AS=1.3P AD=0.84P PS=5.3U PD=2.84U
M$358 \$38 \$189 \$359 VDD pfet_03v3 L=2U W=2U AS=0.84P AD=1.3P PS=2.84U PD=5.3U
M$359 VDD VDD VDD VDD pfet_03v3 L=2U W=2U AS=1.3P AD=0.84P PS=5.3U PD=2.84U
M$360 VDD VDD VDD VDD pfet_03v3 L=2U W=2U AS=0.84P AD=1.3P PS=2.84U PD=5.3U
M$361 VDD VDD VDD VDD pfet_03v3 L=2U W=2U AS=1.3P AD=0.84P PS=5.3U PD=2.84U
M$362 VDD VDD VDD VDD pfet_03v3 L=2U W=2U AS=0.84P AD=1.3P PS=2.84U PD=5.3U
M$363 \$450 \$180 \$925 VDD pfet_03v3 L=2U W=2U AS=1.3P AD=0.84P PS=5.3U
+ PD=2.84U
M$364 VDD \$180 \$450 VDD pfet_03v3 L=2U W=2U AS=0.84P AD=1.3P PS=2.84U PD=5.3U
M$365 \$451 \$180 VDD VDD pfet_03v3 L=2U W=2U AS=1.3P AD=0.84P PS=5.3U PD=2.84U
M$366 \$180 \$180 \$451 VDD pfet_03v3 L=2U W=2U AS=0.84P AD=1.3P PS=2.84U
+ PD=5.3U
M$367 VDD VDD VDD VDD pfet_03v3 L=2U W=2U AS=1.3P AD=0.84P PS=5.3U PD=2.84U
M$368 VDD VDD VDD VDD pfet_03v3 L=2U W=2U AS=0.84P AD=1.3P PS=2.84U PD=5.3U
M$369 VDD VDD VDD VDD pfet_03v3 L=2U W=2U AS=1.3P AD=0.84P PS=5.3U PD=2.84U
M$370 VDD VDD VDD VDD pfet_03v3 L=2U W=2U AS=0.84P AD=1.3P PS=2.84U PD=5.3U
M$371 \$452 \$34 \$181 VDD pfet_03v3 L=2U W=2U AS=1.3P AD=0.84P PS=5.3U PD=2.84U
M$372 VSS \$34 \$452 VDD pfet_03v3 L=2U W=2U AS=0.84P AD=1.3P PS=2.84U PD=5.3U
M$373 \$453 \$34 VSS VDD pfet_03v3 L=2U W=2U AS=1.3P AD=0.84P PS=5.3U PD=2.84U
M$374 \$181 \$34 \$453 VDD pfet_03v3 L=2U W=2U AS=0.84P AD=1.3P PS=2.84U PD=5.3U
M$375 VDD VDD VDD VDD pfet_03v3 L=2U W=2U AS=1.3P AD=0.84P PS=5.3U PD=2.84U
M$376 VDD VDD VDD VDD pfet_03v3 L=2U W=2U AS=0.84P AD=1.3P PS=2.84U PD=5.3U
M$377 VDD VDD VDD VDD pfet_03v3 L=2U W=2U AS=1.3P AD=0.84P PS=5.3U PD=2.84U
M$378 VDD VDD VDD VDD pfet_03v3 L=2U W=2U AS=0.84P AD=1.3P PS=2.84U PD=5.3U
M$379 \$454 \$181 \$34 VDD pfet_03v3 L=2U W=2U AS=1.3P AD=0.84P PS=5.3U PD=2.84U
M$380 \$39 \$181 \$454 VDD pfet_03v3 L=2U W=2U AS=0.84P AD=1.3P PS=2.84U PD=5.3U
M$381 \$455 \$266 \$39 VDD pfet_03v3 L=2U W=2U AS=1.3P AD=0.84P PS=5.3U PD=2.84U
M$382 \$265 \$266 \$455 VDD pfet_03v3 L=2U W=2U AS=0.84P AD=1.3P PS=2.84U
+ PD=5.3U
M$383 VDD VDD VDD VDD pfet_03v3 L=2U W=2U AS=1.3P AD=0.84P PS=5.3U PD=2.84U
M$384 VDD VDD VDD VDD pfet_03v3 L=2U W=2U AS=0.84P AD=1.3P PS=2.84U PD=5.3U
M$385 VDD VDD VDD VDD pfet_03v3 L=2U W=2U AS=1.3P AD=0.84P PS=5.3U PD=2.84U