* Extracted by KLayout with GF180MCU LVS runset on : 04/01/2024 22:27

.SUBCKT Filter_TOP A2 B2 AVDD|AVSS|VDD|VSS B1|VOUT CMOUTP CMOUTN ISBCS ISBCS2
+ IREF VP A1|VN gf180mcu_gnd
M$1 AVDD|AVSS|VDD|VSS AVDD|AVSS|VDD|VSS AVDD|AVSS|VDD|VSS AVDD|AVSS|VDD|VSS
+ pfet_03v3 L=2U W=2U AS=1.3P AD=0.84P PS=5.3U PD=2.84U
M$2 AVDD|AVSS|VDD|VSS AVDD|AVSS|VDD|VSS AVDD|AVSS|VDD|VSS AVDD|AVSS|VDD|VSS
+ pfet_03v3 L=2U W=2U AS=0.84P AD=1.3P PS=2.84U PD=5.3U
M$3 AVDD|AVSS|VDD|VSS AVDD|AVSS|VDD|VSS AVDD|AVSS|VDD|VSS AVDD|AVSS|VDD|VSS
+ pfet_03v3 L=2U W=2U AS=1.3P AD=0.84P PS=5.3U PD=2.84U
M$4 AVDD|AVSS|VDD|VSS AVDD|AVSS|VDD|VSS AVDD|AVSS|VDD|VSS AVDD|AVSS|VDD|VSS
+ pfet_03v3 L=2U W=2U AS=0.84P AD=1.3P PS=2.84U PD=5.3U
M$5 AVDD|AVSS|VDD|VSS AVDD|AVSS|VDD|VSS AVDD|AVSS|VDD|VSS AVDD|AVSS|VDD|VSS
+ pfet_03v3 L=2U W=2U AS=1.3P AD=0.84P PS=5.3U PD=2.84U
M$6 AVDD|AVSS|VDD|VSS AVDD|AVSS|VDD|VSS AVDD|AVSS|VDD|VSS AVDD|AVSS|VDD|VSS
+ pfet_03v3 L=2U W=2U AS=0.84P AD=1.3P PS=2.84U PD=5.3U
M$7 AVDD|AVSS|VDD|VSS AVDD|AVSS|VDD|VSS AVDD|AVSS|VDD|VSS AVDD|AVSS|VDD|VSS
+ pfet_03v3 L=2U W=2U AS=1.3P AD=0.84P PS=5.3U PD=2.84U
M$8 AVDD|AVSS|VDD|VSS AVDD|AVSS|VDD|VSS AVDD|AVSS|VDD|VSS AVDD|AVSS|VDD|VSS
+ pfet_03v3 L=2U W=2U AS=0.84P AD=1.3P PS=2.84U PD=5.3U
M$9 AVDD|AVSS|VDD|VSS AVDD|AVSS|VDD|VSS AVDD|AVSS|VDD|VSS AVDD|AVSS|VDD|VSS
+ pfet_03v3 L=2U W=2U AS=1.3P AD=0.84P PS=5.3U PD=2.84U
M$10 AVDD|AVSS|VDD|VSS AVDD|AVSS|VDD|VSS AVDD|AVSS|VDD|VSS AVDD|AVSS|VDD|VSS
+ pfet_03v3 L=2U W=2U AS=0.84P AD=1.3P PS=2.84U PD=5.3U
M$11 AVDD|AVSS|VDD|VSS AVDD|AVSS|VDD|VSS AVDD|AVSS|VDD|VSS AVDD|AVSS|VDD|VSS
+ pfet_03v3 L=2U W=2U AS=1.3P AD=0.84P PS=5.3U PD=2.84U
M$12 AVDD|AVSS|VDD|VSS AVDD|AVSS|VDD|VSS AVDD|AVSS|VDD|VSS AVDD|AVSS|VDD|VSS
+ pfet_03v3 L=2U W=2U AS=0.84P AD=1.3P PS=2.84U PD=5.3U
M$13 AVDD|AVSS|VDD|VSS AVDD|AVSS|VDD|VSS AVDD|AVSS|VDD|VSS AVDD|AVSS|VDD|VSS
+ pfet_03v3 L=2U W=2U AS=1.3P AD=0.84P PS=5.3U PD=2.84U
M$14 AVDD|AVSS|VDD|VSS AVDD|AVSS|VDD|VSS AVDD|AVSS|VDD|VSS AVDD|AVSS|VDD|VSS
+ pfet_03v3 L=2U W=2U AS=0.84P AD=1.3P PS=2.84U PD=5.3U
M$15 AVDD|AVSS|VDD|VSS AVDD|AVSS|VDD|VSS AVDD|AVSS|VDD|VSS AVDD|AVSS|VDD|VSS
+ pfet_03v3 L=2U W=2U AS=1.3P AD=0.84P PS=5.3U PD=2.84U
M$16 AVDD|AVSS|VDD|VSS AVDD|AVSS|VDD|VSS AVDD|AVSS|VDD|VSS AVDD|AVSS|VDD|VSS
+ pfet_03v3 L=2U W=2U AS=0.84P AD=1.3P PS=2.84U PD=5.3U
M$17 AVDD|AVSS|VDD|VSS AVDD|AVSS|VDD|VSS AVDD|AVSS|VDD|VSS AVDD|AVSS|VDD|VSS
+ pfet_03v3 L=2U W=2U AS=1.3P AD=0.84P PS=5.3U PD=2.84U
M$18 AVDD|AVSS|VDD|VSS AVDD|AVSS|VDD|VSS AVDD|AVSS|VDD|VSS AVDD|AVSS|VDD|VSS
+ pfet_03v3 L=2U W=2U AS=0.84P AD=1.3P PS=2.84U PD=5.3U
M$19 AVDD|AVSS|VDD|VSS AVDD|AVSS|VDD|VSS AVDD|AVSS|VDD|VSS AVDD|AVSS|VDD|VSS
+ pfet_03v3 L=2U W=2U AS=1.3P AD=0.84P PS=5.3U PD=2.84U
M$20 AVDD|AVSS|VDD|VSS AVDD|AVSS|VDD|VSS AVDD|AVSS|VDD|VSS AVDD|AVSS|VDD|VSS
+ pfet_03v3 L=2U W=2U AS=0.84P AD=1.3P PS=2.84U PD=5.3U
M$21 AVDD|AVSS|VDD|VSS AVDD|AVSS|VDD|VSS AVDD|AVSS|VDD|VSS AVDD|AVSS|VDD|VSS
+ pfet_03v3 L=2U W=2U AS=1.3P AD=0.84P PS=5.3U PD=2.84U
M$22 AVDD|AVSS|VDD|VSS AVDD|AVSS|VDD|VSS AVDD|AVSS|VDD|VSS AVDD|AVSS|VDD|VSS
+ pfet_03v3 L=2U W=2U AS=0.84P AD=1.3P PS=2.84U PD=5.3U
M$23 AVDD|AVSS|VDD|VSS AVDD|AVSS|VDD|VSS AVDD|AVSS|VDD|VSS AVDD|AVSS|VDD|VSS
+ pfet_03v3 L=2U W=2U AS=1.3P AD=0.84P PS=5.3U PD=2.84U
M$24 AVDD|AVSS|VDD|VSS AVDD|AVSS|VDD|VSS AVDD|AVSS|VDD|VSS AVDD|AVSS|VDD|VSS
+ pfet_03v3 L=2U W=2U AS=0.84P AD=1.3P PS=2.84U PD=5.3U
M$25 AVDD|AVSS|VDD|VSS AVDD|AVSS|VDD|VSS AVDD|AVSS|VDD|VSS AVDD|AVSS|VDD|VSS
+ pfet_03v3 L=2U W=2U AS=1.3P AD=0.84P PS=5.3U PD=2.84U
M$26 AVDD|AVSS|VDD|VSS AVDD|AVSS|VDD|VSS AVDD|AVSS|VDD|VSS AVDD|AVSS|VDD|VSS
+ pfet_03v3 L=2U W=2U AS=0.84P AD=1.3P PS=2.84U PD=5.3U
M$27 AVDD|AVSS|VDD|VSS AVDD|AVSS|VDD|VSS AVDD|AVSS|VDD|VSS AVDD|AVSS|VDD|VSS
+ pfet_03v3 L=2U W=2U AS=1.3P AD=0.84P PS=5.3U PD=2.84U
M$28 AVDD|AVSS|VDD|VSS AVDD|AVSS|VDD|VSS AVDD|AVSS|VDD|VSS AVDD|AVSS|VDD|VSS
+ pfet_03v3 L=2U W=2U AS=0.84P AD=1.3P PS=2.84U PD=5.3U
M$29 AVDD|AVSS|VDD|VSS AVDD|AVSS|VDD|VSS AVDD|AVSS|VDD|VSS AVDD|AVSS|VDD|VSS
+ pfet_03v3 L=2U W=2U AS=1.3P AD=0.84P PS=5.3U PD=2.84U
M$30 AVDD|AVSS|VDD|VSS AVDD|AVSS|VDD|VSS AVDD|AVSS|VDD|VSS AVDD|AVSS|VDD|VSS
+ pfet_03v3 L=2U W=2U AS=0.84P AD=1.3P PS=2.84U PD=5.3U
M$31 AVDD|AVSS|VDD|VSS AVDD|AVSS|VDD|VSS AVDD|AVSS|VDD|VSS AVDD|AVSS|VDD|VSS
+ pfet_03v3 L=2U W=2U AS=1.3P AD=0.84P PS=5.3U PD=2.84U
M$32 AVDD|AVSS|VDD|VSS AVDD|AVSS|VDD|VSS AVDD|AVSS|VDD|VSS AVDD|AVSS|VDD|VSS
+ pfet_03v3 L=2U W=2U AS=0.84P AD=1.3P PS=2.84U PD=5.3U
M$33 AVDD|AVSS|VDD|VSS AVDD|AVSS|VDD|VSS AVDD|AVSS|VDD|VSS AVDD|AVSS|VDD|VSS
+ pfet_03v3 L=2U W=2U AS=1.3P AD=0.84P PS=5.3U PD=2.84U
M$34 AVDD|AVSS|VDD|VSS AVDD|AVSS|VDD|VSS AVDD|AVSS|VDD|VSS AVDD|AVSS|VDD|VSS
+ pfet_03v3 L=2U W=2U AS=0.84P AD=1.3P PS=2.84U PD=5.3U
M$35 AVDD|AVSS|VDD|VSS AVDD|AVSS|VDD|VSS AVDD|AVSS|VDD|VSS AVDD|AVSS|VDD|VSS
+ pfet_03v3 L=2U W=2U AS=1.3P AD=0.84P PS=5.3U PD=2.84U
M$36 AVDD|AVSS|VDD|VSS AVDD|AVSS|VDD|VSS AVDD|AVSS|VDD|VSS AVDD|AVSS|VDD|VSS
+ pfet_03v3 L=2U W=2U AS=0.84P AD=1.3P PS=2.84U PD=5.3U
M$37 AVDD|AVSS|VDD|VSS AVDD|AVSS|VDD|VSS AVDD|AVSS|VDD|VSS AVDD|AVSS|VDD|VSS
+ pfet_03v3 L=2U W=2U AS=1.3P AD=0.84P PS=5.3U PD=2.84U
M$38 AVDD|AVSS|VDD|VSS AVDD|AVSS|VDD|VSS AVDD|AVSS|VDD|VSS AVDD|AVSS|VDD|VSS
+ pfet_03v3 L=2U W=2U AS=0.84P AD=1.3P PS=2.84U PD=5.3U
M$39 AVDD|AVSS|VDD|VSS AVDD|AVSS|VDD|VSS AVDD|AVSS|VDD|VSS AVDD|AVSS|VDD|VSS
+ pfet_03v3 L=2U W=2U AS=1.3P AD=0.84P PS=5.3U PD=2.84U
M$40 AVDD|AVSS|VDD|VSS AVDD|AVSS|VDD|VSS AVDD|AVSS|VDD|VSS AVDD|AVSS|VDD|VSS
+ pfet_03v3 L=2U W=2U AS=0.84P AD=1.3P PS=2.84U PD=5.3U
M$41 AVDD|AVSS|VDD|VSS AVDD|AVSS|VDD|VSS AVDD|AVSS|VDD|VSS AVDD|AVSS|VDD|VSS
+ pfet_03v3 L=2U W=2U AS=1.3P AD=0.84P PS=5.3U PD=2.84U
M$42 AVDD|AVSS|VDD|VSS AVDD|AVSS|VDD|VSS AVDD|AVSS|VDD|VSS AVDD|AVSS|VDD|VSS
+ pfet_03v3 L=2U W=2U AS=0.84P AD=1.3P PS=2.84U PD=5.3U
M$43 AVDD|AVSS|VDD|VSS AVDD|AVSS|VDD|VSS AVDD|AVSS|VDD|VSS AVDD|AVSS|VDD|VSS
+ pfet_03v3 L=2U W=2U AS=1.3P AD=0.84P PS=5.3U PD=2.84U
M$44 AVDD|AVSS|VDD|VSS AVDD|AVSS|VDD|VSS AVDD|AVSS|VDD|VSS AVDD|AVSS|VDD|VSS
+ pfet_03v3 L=2U W=2U AS=0.84P AD=1.3P PS=2.84U PD=5.3U
M$45 AVDD|AVSS|VDD|VSS AVDD|AVSS|VDD|VSS AVDD|AVSS|VDD|VSS AVDD|AVSS|VDD|VSS
+ pfet_03v3 L=2U W=2U AS=1.3P AD=0.84P PS=5.3U PD=2.84U
M$46 AVDD|AVSS|VDD|VSS AVDD|AVSS|VDD|VSS AVDD|AVSS|VDD|VSS AVDD|AVSS|VDD|VSS
+ pfet_03v3 L=2U W=2U AS=0.84P AD=1.3P PS=2.84U PD=5.3U
M$47 AVDD|AVSS|VDD|VSS AVDD|AVSS|VDD|VSS AVDD|AVSS|VDD|VSS AVDD|AVSS|VDD|VSS
+ pfet_03v3 L=2U W=2U AS=1.3P AD=0.84P PS=5.3U PD=2.84U
M$48 AVDD|AVSS|VDD|VSS AVDD|AVSS|VDD|VSS AVDD|AVSS|VDD|VSS AVDD|AVSS|VDD|VSS
+ pfet_03v3 L=2U W=2U AS=0.84P AD=1.3P PS=2.84U PD=5.3U
M$49 AVDD|AVSS|VDD|VSS AVDD|AVSS|VDD|VSS AVDD|AVSS|VDD|VSS AVDD|AVSS|VDD|VSS
+ pfet_03v3 L=2U W=2U AS=1.3P AD=0.84P PS=5.3U PD=2.84U
M$50 AVDD|AVSS|VDD|VSS AVDD|AVSS|VDD|VSS AVDD|AVSS|VDD|VSS AVDD|AVSS|VDD|VSS
+ pfet_03v3 L=2U W=2U AS=0.84P AD=1.3P PS=2.84U PD=5.3U
M$51 AVDD|AVSS|VDD|VSS AVDD|AVSS|VDD|VSS AVDD|AVSS|VDD|VSS AVDD|AVSS|VDD|VSS
+ pfet_03v3 L=2U W=2U AS=1.3P AD=0.84P PS=5.3U PD=2.84U
M$52 AVDD|AVSS|VDD|VSS AVDD|AVSS|VDD|VSS AVDD|AVSS|VDD|VSS AVDD|AVSS|VDD|VSS
+ pfet_03v3 L=2U W=2U AS=0.84P AD=1.3P PS=2.84U PD=5.3U
M$53 AVDD|AVSS|VDD|VSS AVDD|AVSS|VDD|VSS AVDD|AVSS|VDD|VSS AVDD|AVSS|VDD|VSS
+ pfet_03v3 L=2U W=2U AS=1.3P AD=0.84P PS=5.3U PD=2.84U
M$54 AVDD|AVSS|VDD|VSS AVDD|AVSS|VDD|VSS AVDD|AVSS|VDD|VSS AVDD|AVSS|VDD|VSS
+ pfet_03v3 L=2U W=2U AS=0.84P AD=1.3P PS=2.84U PD=5.3U
M$55 AVDD|AVSS|VDD|VSS AVDD|AVSS|VDD|VSS AVDD|AVSS|VDD|VSS AVDD|AVSS|VDD|VSS
+ pfet_03v3 L=2U W=2U AS=1.3P AD=0.84P PS=5.3U PD=2.84U
M$56 AVDD|AVSS|VDD|VSS AVDD|AVSS|VDD|VSS AVDD|AVSS|VDD|VSS AVDD|AVSS|VDD|VSS
+ pfet_03v3 L=2U W=2U AS=0.84P AD=1.3P PS=2.84U PD=5.3U
M$57 AVDD|AVSS|VDD|VSS AVDD|AVSS|VDD|VSS AVDD|AVSS|VDD|VSS AVDD|AVSS|VDD|VSS
+ pfet_03v3 L=2U W=2U AS=1.3P AD=0.84P PS=5.3U PD=2.84U
M$58 AVDD|AVSS|VDD|VSS AVDD|AVSS|VDD|VSS AVDD|AVSS|VDD|VSS AVDD|AVSS|VDD|VSS
+ pfet_03v3 L=2U W=2U AS=0.84P AD=1.3P PS=2.84U PD=5.3U
M$59 AVDD|AVSS|VDD|VSS AVDD|AVSS|VDD|VSS AVDD|AVSS|VDD|VSS AVDD|AVSS|VDD|VSS
+ pfet_03v3 L=2U W=2U AS=1.3P AD=0.84P PS=5.3U PD=2.84U
M$60 AVDD|AVSS|VDD|VSS AVDD|AVSS|VDD|VSS AVDD|AVSS|VDD|VSS AVDD|AVSS|VDD|VSS
+ pfet_03v3 L=2U W=2U AS=0.84P AD=1.3P PS=2.84U PD=5.3U
M$61 AVDD|AVSS|VDD|VSS AVDD|AVSS|VDD|VSS AVDD|AVSS|VDD|VSS AVDD|AVSS|VDD|VSS
+ pfet_03v3 L=2U W=2U AS=1.3P AD=0.84P PS=5.3U PD=2.84U
M$62 AVDD|AVSS|VDD|VSS AVDD|AVSS|VDD|VSS AVDD|AVSS|VDD|VSS AVDD|AVSS|VDD|VSS
+ pfet_03v3 L=2U W=2U AS=0.84P AD=1.3P PS=2.84U PD=5.3U
M$63 AVDD|AVSS|VDD|VSS AVDD|AVSS|VDD|VSS AVDD|AVSS|VDD|VSS AVDD|AVSS|VDD|VSS
+ pfet_03v3 L=2U W=2U AS=1.3P AD=0.84P PS=5.3U PD=2.84U
M$64 AVDD|AVSS|VDD|VSS AVDD|AVSS|VDD|VSS AVDD|AVSS|VDD|VSS AVDD|AVSS|VDD|VSS
+ pfet_03v3 L=2U W=2U AS=0.84P AD=1.3P PS=2.84U PD=5.3U
M$65 AVDD|AVSS|VDD|VSS AVDD|AVSS|VDD|VSS AVDD|AVSS|VDD|VSS AVDD|AVSS|VDD|VSS
+ pfet_03v3 L=2U W=2U AS=1.3P AD=0.84P PS=5.3U PD=2.84U
M$66 AVDD|AVSS|VDD|VSS AVDD|AVSS|VDD|VSS AVDD|AVSS|VDD|VSS AVDD|AVSS|VDD|VSS
+ pfet_03v3 L=2U W=2U AS=0.84P AD=1.3P PS=2.84U PD=5.3U
M$67 AVDD|AVSS|VDD|VSS AVDD|AVSS|VDD|VSS AVDD|AVSS|VDD|VSS AVDD|AVSS|VDD|VSS
+ pfet_03v3 L=2U W=2U AS=1.3P AD=0.84P PS=5.3U PD=2.84U
M$68 AVDD|AVSS|VDD|VSS AVDD|AVSS|VDD|VSS AVDD|AVSS|VDD|VSS AVDD|AVSS|VDD|VSS
+ pfet_03v3 L=2U W=2U AS=0.84P AD=1.3P PS=2.84U PD=5.3U
M$69 AVDD|AVSS|VDD|VSS AVDD|AVSS|VDD|VSS AVDD|AVSS|VDD|VSS AVDD|AVSS|VDD|VSS
+ pfet_03v3 L=2U W=2U AS=1.3P AD=0.84P PS=5.3U PD=2.84U
M$70 AVDD|AVSS|VDD|VSS AVDD|AVSS|VDD|VSS AVDD|AVSS|VDD|VSS AVDD|AVSS|VDD|VSS
+ pfet_03v3 L=2U W=2U AS=0.84P AD=1.3P PS=2.84U PD=5.3U
M$71 AVDD|AVSS|VDD|VSS AVDD|AVSS|VDD|VSS AVDD|AVSS|VDD|VSS AVDD|AVSS|VDD|VSS
+ pfet_03v3 L=2U W=2U AS=1.3P AD=0.84P PS=5.3U PD=2.84U
M$72 AVDD|AVSS|VDD|VSS AVDD|AVSS|VDD|VSS AVDD|AVSS|VDD|VSS AVDD|AVSS|VDD|VSS
+ pfet_03v3 L=2U W=2U AS=0.84P AD=1.3P PS=2.84U PD=5.3U
M$73 AVDD|AVSS|VDD|VSS AVDD|AVSS|VDD|VSS AVDD|AVSS|VDD|VSS AVDD|AVSS|VDD|VSS
+ pfet_03v3 L=2U W=2U AS=1.3P AD=0.84P PS=5.3U PD=2.84U
M$74 AVDD|AVSS|VDD|VSS AVDD|AVSS|VDD|VSS AVDD|AVSS|VDD|VSS AVDD|AVSS|VDD|VSS
+ pfet_03v3 L=2U W=2U AS=0.84P AD=1.3P PS=2.84U PD=5.3U
M$75 AVDD|AVSS|VDD|VSS AVDD|AVSS|VDD|VSS AVDD|AVSS|VDD|VSS AVDD|AVSS|VDD|VSS
+ pfet_03v3 L=2U W=2U AS=1.3P AD=0.84P PS=5.3U PD=2.84U
M$76 AVDD|AVSS|VDD|VSS AVDD|AVSS|VDD|VSS AVDD|AVSS|VDD|VSS AVDD|AVSS|VDD|VSS
+ pfet_03v3 L=2U W=2U AS=0.84P AD=1.3P PS=2.84U PD=5.3U
M$77 AVDD|AVSS|VDD|VSS AVDD|AVSS|VDD|VSS AVDD|AVSS|VDD|VSS AVDD|AVSS|VDD|VSS
+ pfet_03v3 L=2U W=2U AS=1.3P AD=0.84P PS=5.3U PD=2.84U
M$78 AVDD|AVSS|VDD|VSS AVDD|AVSS|VDD|VSS AVDD|AVSS|VDD|VSS AVDD|AVSS|VDD|VSS
+ pfet_03v3 L=2U W=2U AS=0.84P AD=1.3P PS=2.84U PD=5.3U
M$79 AVDD|AVSS|VDD|VSS AVDD|AVSS|VDD|VSS AVDD|AVSS|VDD|VSS AVDD|AVSS|VDD|VSS
+ pfet_03v3 L=2U W=2U AS=1.3P AD=0.84P PS=5.3U PD=2.84U
M$80 AVDD|AVSS|VDD|VSS AVDD|AVSS|VDD|VSS AVDD|AVSS|VDD|VSS AVDD|AVSS|VDD|VSS
+ pfet_03v3 L=2U W=2U AS=0.84P AD=1.3P PS=2.84U PD=5.3U
M$81 AVDD|AVSS|VDD|VSS AVDD|AVSS|VDD|VSS AVDD|AVSS|VDD|VSS AVDD|AVSS|VDD|VSS
+ pfet_03v3 L=2U W=2U AS=1.3P AD=0.84P PS=5.3U PD=2.84U
M$82 AVDD|AVSS|VDD|VSS AVDD|AVSS|VDD|VSS AVDD|AVSS|VDD|VSS AVDD|AVSS|VDD|VSS
+ pfet_03v3 L=2U W=2U AS=0.84P AD=1.3P PS=2.84U PD=5.3U
M$83 AVDD|AVSS|VDD|VSS AVDD|AVSS|VDD|VSS AVDD|AVSS|VDD|VSS AVDD|AVSS|VDD|VSS
+ pfet_03v3 L=2U W=2U AS=1.3P AD=0.84P PS=5.3U PD=2.84U
M$84 AVDD|AVSS|VDD|VSS AVDD|AVSS|VDD|VSS AVDD|AVSS|VDD|VSS AVDD|AVSS|VDD|VSS
+ pfet_03v3 L=2U W=2U AS=0.84P AD=1.3P PS=2.84U PD=5.3U
M$85 AVDD|AVSS|VDD|VSS AVDD|AVSS|VDD|VSS AVDD|AVSS|VDD|VSS AVDD|AVSS|VDD|VSS
+ pfet_03v3 L=2U W=2U AS=1.3P AD=0.84P PS=5.3U PD=2.84U
M$86 AVDD|AVSS|VDD|VSS AVDD|AVSS|VDD|VSS AVDD|AVSS|VDD|VSS AVDD|AVSS|VDD|VSS
+ pfet_03v3 L=2U W=2U AS=0.84P AD=1.3P PS=2.84U PD=5.3U
M$87 AVDD|AVSS|VDD|VSS AVDD|AVSS|VDD|VSS AVDD|AVSS|VDD|VSS AVDD|AVSS|VDD|VSS
+ pfet_03v3 L=2U W=2U AS=1.3P AD=0.84P PS=5.3U PD=2.84U
M$88 AVDD|AVSS|VDD|VSS AVDD|AVSS|VDD|VSS AVDD|AVSS|VDD|VSS AVDD|AVSS|VDD|VSS
+ pfet_03v3 L=2U W=2U AS=0.84P AD=1.3P PS=2.84U PD=5.3U
M$89 AVDD|AVSS|VDD|VSS AVDD|AVSS|VDD|VSS AVDD|AVSS|VDD|VSS AVDD|AVSS|VDD|VSS
+ pfet_03v3 L=2U W=2U AS=1.3P AD=0.84P PS=5.3U PD=2.84U
M$90 AVDD|AVSS|VDD|VSS AVDD|AVSS|VDD|VSS AVDD|AVSS|VDD|VSS AVDD|AVSS|VDD|VSS
+ pfet_03v3 L=2U W=2U AS=0.84P AD=1.3P PS=2.84U PD=5.3U
M$91 AVDD|AVSS|VDD|VSS AVDD|AVSS|VDD|VSS AVDD|AVSS|VDD|VSS AVDD|AVSS|VDD|VSS
+ pfet_03v3 L=2U W=2U AS=1.3P AD=0.84P PS=5.3U PD=2.84U
M$92 AVDD|AVSS|VDD|VSS AVDD|AVSS|VDD|VSS AVDD|AVSS|VDD|VSS AVDD|AVSS|VDD|VSS
+ pfet_03v3 L=2U W=2U AS=0.84P AD=1.3P PS=2.84U PD=5.3U
M$93 AVDD|AVSS|VDD|VSS AVDD|AVSS|VDD|VSS AVDD|AVSS|VDD|VSS AVDD|AVSS|VDD|VSS
+ pfet_03v3 L=2U W=2U AS=1.3P AD=0.84P PS=5.3U PD=2.84U
M$94 AVDD|AVSS|VDD|VSS AVDD|AVSS|VDD|VSS AVDD|AVSS|VDD|VSS AVDD|AVSS|VDD|VSS
+ pfet_03v3 L=2U W=2U AS=0.84P AD=1.3P PS=2.84U PD=5.3U
M$95 AVDD|AVSS|VDD|VSS AVDD|AVSS|VDD|VSS AVDD|AVSS|VDD|VSS AVDD|AVSS|VDD|VSS
+ pfet_03v3 L=2U W=2U AS=1.3P AD=0.84P PS=5.3U PD=2.84U
M$96 AVDD|AVSS|VDD|VSS AVDD|AVSS|VDD|VSS AVDD|AVSS|VDD|VSS AVDD|AVSS|VDD|VSS
+ pfet_03v3 L=2U W=2U AS=0.84P AD=1.3P PS=2.84U PD=5.3U
M$97 AVDD|AVSS|VDD|VSS AVDD|AVSS|VDD|VSS AVDD|AVSS|VDD|VSS AVDD|AVSS|VDD|VSS
+ pfet_03v3 L=2U W=2U AS=1.3P AD=0.84P PS=5.3U PD=2.84U
M$98 AVDD|AVSS|VDD|VSS AVDD|AVSS|VDD|VSS AVDD|AVSS|VDD|VSS AVDD|AVSS|VDD|VSS
+ pfet_03v3 L=2U W=2U AS=0.84P AD=1.3P PS=2.84U PD=5.3U
M$99 AVDD|AVSS|VDD|VSS AVDD|AVSS|VDD|VSS AVDD|AVSS|VDD|VSS AVDD|AVSS|VDD|VSS
+ pfet_03v3 L=2U W=2U AS=1.3P AD=0.84P PS=5.3U PD=2.84U
M$100 AVDD|AVSS|VDD|VSS AVDD|AVSS|VDD|VSS AVDD|AVSS|VDD|VSS AVDD|AVSS|VDD|VSS
+ pfet_03v3 L=2U W=2U AS=0.84P AD=1.3P PS=2.84U PD=5.3U
M$101 AVDD|AVSS|VDD|VSS AVDD|AVSS|VDD|VSS AVDD|AVSS|VDD|VSS AVDD|AVSS|VDD|VSS
+ pfet_03v3 L=2U W=2U AS=1.3P AD=0.84P PS=5.3U PD=2.84U
M$102 AVDD|AVSS|VDD|VSS AVDD|AVSS|VDD|VSS AVDD|AVSS|VDD|VSS AVDD|AVSS|VDD|VSS
+ pfet_03v3 L=2U W=2U AS=0.84P AD=1.3P PS=2.84U PD=5.3U
M$103 AVDD|AVSS|VDD|VSS AVDD|AVSS|VDD|VSS AVDD|AVSS|VDD|VSS AVDD|AVSS|VDD|VSS
+ pfet_03v3 L=2U W=2U AS=1.3P AD=0.84P PS=5.3U PD=2.84U
M$104 AVDD|AVSS|VDD|VSS AVDD|AVSS|VDD|VSS AVDD|AVSS|VDD|VSS AVDD|AVSS|VDD|VSS
+ pfet_03v3 L=2U W=2U AS=0.84P AD=1.3P PS=2.84U PD=5.3U
M$105 AVDD|AVSS|VDD|VSS AVDD|AVSS|VDD|VSS AVDD|AVSS|VDD|VSS AVDD|AVSS|VDD|VSS
+ pfet_03v3 L=2U W=2U AS=1.3P AD=0.84P PS=5.3U PD=2.84U
M$106 AVDD|AVSS|VDD|VSS AVDD|AVSS|VDD|VSS AVDD|AVSS|VDD|VSS AVDD|AVSS|VDD|VSS
+ pfet_03v3 L=2U W=2U AS=0.84P AD=1.3P PS=2.84U PD=5.3U
M$107 AVDD|AVSS|VDD|VSS AVDD|AVSS|VDD|VSS AVDD|AVSS|VDD|VSS AVDD|AVSS|VDD|VSS
+ pfet_03v3 L=2U W=2U AS=1.3P AD=0.84P PS=5.3U PD=2.84U
M$108 AVDD|AVSS|VDD|VSS AVDD|AVSS|VDD|VSS AVDD|AVSS|VDD|VSS AVDD|AVSS|VDD|VSS
+ pfet_03v3 L=2U W=2U AS=0.84P AD=1.3P PS=2.84U PD=5.3U
M$109 AVDD|AVSS|VDD|VSS AVDD|AVSS|VDD|VSS AVDD|AVSS|VDD|VSS AVDD|AVSS|VDD|VSS
+ pfet_03v3 L=2U W=2U AS=1.3P AD=0.84P PS=5.3U PD=2.84U
M$110 AVDD|AVSS|VDD|VSS AVDD|AVSS|VDD|VSS AVDD|AVSS|VDD|VSS AVDD|AVSS|VDD|VSS
+ pfet_03v3 L=2U W=2U AS=0.84P AD=1.3P PS=2.84U PD=5.3U
M$111 AVDD|AVSS|VDD|VSS AVDD|AVSS|VDD|VSS AVDD|AVSS|VDD|VSS AVDD|AVSS|VDD|VSS
+ pfet_03v3 L=2U W=2U AS=1.3P AD=0.84P PS=5.3U PD=2.84U
M$112 AVDD|AVSS|VDD|VSS AVDD|AVSS|VDD|VSS AVDD|AVSS|VDD|VSS AVDD|AVSS|VDD|VSS
+ pfet_03v3 L=2U W=2U AS=0.84P AD=1.3P PS=2.84U PD=5.3U
M$113 AVDD|AVSS|VDD|VSS AVDD|AVSS|VDD|VSS AVDD|AVSS|VDD|VSS AVDD|AVSS|VDD|VSS
+ pfet_03v3 L=2U W=2U AS=1.3P AD=0.84P PS=5.3U PD=2.84U
M$114 AVDD|AVSS|VDD|VSS AVDD|AVSS|VDD|VSS AVDD|AVSS|VDD|VSS AVDD|AVSS|VDD|VSS
+ pfet_03v3 L=2U W=2U AS=0.84P AD=1.3P PS=2.84U PD=5.3U
M$115 AVDD|AVSS|VDD|VSS AVDD|AVSS|VDD|VSS AVDD|AVSS|VDD|VSS AVDD|AVSS|VDD|VSS
+ pfet_03v3 L=2U W=2U AS=1.3P AD=0.84P PS=5.3U PD=2.84U
M$116 AVDD|AVSS|VDD|VSS AVDD|AVSS|VDD|VSS AVDD|AVSS|VDD|VSS AVDD|AVSS|VDD|VSS
+ pfet_03v3 L=2U W=2U AS=0.84P AD=1.3P PS=2.84U PD=5.3U
M$117 AVDD|AVSS|VDD|VSS AVDD|AVSS|VDD|VSS AVDD|AVSS|VDD|VSS AVDD|AVSS|VDD|VSS
+ pfet_03v3 L=2U W=2U AS=1.3P AD=0.84P PS=5.3U PD=2.84U
M$118 AVDD|AVSS|VDD|VSS AVDD|AVSS|VDD|VSS AVDD|AVSS|VDD|VSS AVDD|AVSS|VDD|VSS
+ pfet_03v3 L=2U W=2U AS=0.84P AD=1.3P PS=2.84U PD=5.3U
M$119 AVDD|AVSS|VDD|VSS AVDD|AVSS|VDD|VSS AVDD|AVSS|VDD|VSS AVDD|AVSS|VDD|VSS
+ pfet_03v3 L=2U W=2U AS=1.3P AD=0.84P PS=5.3U PD=2.84U
M$120 AVDD|AVSS|VDD|VSS AVDD|AVSS|VDD|VSS AVDD|AVSS|VDD|VSS AVDD|AVSS|VDD|VSS
+ pfet_03v3 L=2U W=2U AS=0.84P AD=1.3P PS=2.84U PD=5.3U
M$121 AVDD|AVSS|VDD|VSS AVDD|AVSS|VDD|VSS AVDD|AVSS|VDD|VSS AVDD|AVSS|VDD|VSS
+ pfet_03v3 L=2U W=2U AS=1.3P AD=0.84P PS=5.3U PD=2.84U
M$122 AVDD|AVSS|VDD|VSS AVDD|AVSS|VDD|VSS AVDD|AVSS|VDD|VSS AVDD|AVSS|VDD|VSS
+ pfet_03v3 L=2U W=2U AS=0.84P AD=1.3P PS=2.84U PD=5.3U
M$123 \$135 \$172 \$917 AVDD|AVSS|VDD|VSS pfet_03v3 L=2U W=2U AS=1.3P AD=0.84P
+ PS=5.3U PD=2.84U
M$124 AVDD|AVSS|VDD|VSS \$172 \$135 AVDD|AVSS|VDD|VSS pfet_03v3 L=2U W=2U
+ AS=0.84P AD=1.3P PS=2.84U PD=5.3U
M$125 \$136 \$172 AVDD|AVSS|VDD|VSS AVDD|AVSS|VDD|VSS pfet_03v3 L=2U W=2U
+ AS=1.3P AD=0.84P PS=5.3U PD=2.84U
M$126 \$172 \$172 \$136 AVDD|AVSS|VDD|VSS pfet_03v3 L=2U W=2U AS=0.84P AD=1.3P
+ PS=2.84U PD=5.3U
M$127 AVDD|AVSS|VDD|VSS AVDD|AVSS|VDD|VSS AVDD|AVSS|VDD|VSS AVDD|AVSS|VDD|VSS
+ pfet_03v3 L=2U W=2U AS=1.3P AD=0.84P PS=5.3U PD=2.84U
M$128 AVDD|AVSS|VDD|VSS AVDD|AVSS|VDD|VSS AVDD|AVSS|VDD|VSS AVDD|AVSS|VDD|VSS
+ pfet_03v3 L=2U W=2U AS=0.84P AD=1.3P PS=2.84U PD=5.3U
M$129 AVDD|AVSS|VDD|VSS AVDD|AVSS|VDD|VSS AVDD|AVSS|VDD|VSS AVDD|AVSS|VDD|VSS
+ pfet_03v3 L=2U W=2U AS=1.3P AD=0.84P PS=5.3U PD=2.84U
M$130 AVDD|AVSS|VDD|VSS AVDD|AVSS|VDD|VSS AVDD|AVSS|VDD|VSS AVDD|AVSS|VDD|VSS
+ pfet_03v3 L=2U W=2U AS=0.84P AD=1.3P PS=2.84U PD=5.3U
M$131 \$137 \$24 \$1 AVDD|AVSS|VDD|VSS pfet_03v3 L=2U W=2U AS=1.3P AD=0.84P
+ PS=5.3U PD=2.84U
M$132 \$138 \$24 \$137 AVDD|AVSS|VDD|VSS pfet_03v3 L=2U W=2U AS=0.84P AD=1.3P
+ PS=2.84U PD=5.3U
M$133 \$139 \$24 \$115 AVDD|AVSS|VDD|VSS pfet_03v3 L=2U W=2U AS=1.3P AD=0.84P
+ PS=5.3U PD=2.84U
M$134 A2 \$24 \$139 AVDD|AVSS|VDD|VSS pfet_03v3 L=2U W=2U AS=0.84P AD=1.3P
+ PS=2.84U PD=5.3U
M$135 AVDD|AVSS|VDD|VSS AVDD|AVSS|VDD|VSS AVDD|AVSS|VDD|VSS AVDD|AVSS|VDD|VSS
+ pfet_03v3 L=2U W=2U AS=1.3P AD=0.84P PS=5.3U PD=2.84U
M$136 AVDD|AVSS|VDD|VSS AVDD|AVSS|VDD|VSS AVDD|AVSS|VDD|VSS AVDD|AVSS|VDD|VSS
+ pfet_03v3 L=2U W=2U AS=0.84P AD=1.3P PS=2.84U PD=5.3U
M$137 AVDD|AVSS|VDD|VSS AVDD|AVSS|VDD|VSS AVDD|AVSS|VDD|VSS AVDD|AVSS|VDD|VSS
+ pfet_03v3 L=2U W=2U AS=1.3P AD=0.84P PS=5.3U PD=2.84U
M$138 AVDD|AVSS|VDD|VSS AVDD|AVSS|VDD|VSS AVDD|AVSS|VDD|VSS AVDD|AVSS|VDD|VSS
+ pfet_03v3 L=2U W=2U AS=0.84P AD=1.3P PS=2.84U PD=5.3U
M$139 \$141 \$173 \$24 AVDD|AVSS|VDD|VSS pfet_03v3 L=2U W=2U AS=1.3P AD=0.84P
+ PS=5.3U PD=2.84U
M$140 \$29 \$173 \$141 AVDD|AVSS|VDD|VSS pfet_03v3 L=2U W=2U AS=0.84P AD=1.3P
+ PS=2.84U PD=5.3U
M$141 \$142 \$258 \$29 AVDD|AVSS|VDD|VSS pfet_03v3 L=2U W=2U AS=1.3P AD=0.84P
+ PS=5.3U PD=2.84U
M$142 \$257 \$258 \$142 AVDD|AVSS|VDD|VSS pfet_03v3 L=2U W=2U AS=0.84P AD=1.3P
+ PS=2.84U PD=5.3U
M$143 AVDD|AVSS|VDD|VSS AVDD|AVSS|VDD|VSS AVDD|AVSS|VDD|VSS AVDD|AVSS|VDD|VSS
+ pfet_03v3 L=2U W=2U AS=1.3P AD=0.84P PS=5.3U PD=2.84U
M$144 AVDD|AVSS|VDD|VSS AVDD|AVSS|VDD|VSS AVDD|AVSS|VDD|VSS AVDD|AVSS|VDD|VSS
+ pfet_03v3 L=2U W=2U AS=0.84P AD=1.3P PS=2.84U PD=5.3U
M$145 AVDD|AVSS|VDD|VSS AVDD|AVSS|VDD|VSS AVDD|AVSS|VDD|VSS AVDD|AVSS|VDD|VSS
+ pfet_03v3 L=2U W=2U AS=1.3P AD=0.84P PS=5.3U PD=2.84U
M$146 AVDD|AVSS|VDD|VSS AVDD|AVSS|VDD|VSS AVDD|AVSS|VDD|VSS AVDD|AVSS|VDD|VSS
+ pfet_03v3 L=2U W=2U AS=0.84P AD=1.3P PS=2.84U PD=5.3U
M$147 \$143 \$174 \$919 AVDD|AVSS|VDD|VSS pfet_03v3 L=2U W=2U AS=1.3P AD=0.84P
+ PS=5.3U PD=2.84U
M$148 AVDD|AVSS|VDD|VSS \$174 \$143 AVDD|AVSS|VDD|VSS pfet_03v3 L=2U W=2U
+ AS=0.84P AD=1.3P PS=2.84U PD=5.3U
M$149 \$144 \$174 AVDD|AVSS|VDD|VSS AVDD|AVSS|VDD|VSS pfet_03v3 L=2U W=2U
+ AS=1.3P AD=0.84P PS=5.3U PD=2.84U
M$150 \$174 \$174 \$144 AVDD|AVSS|VDD|VSS pfet_03v3 L=2U W=2U AS=0.84P AD=1.3P
+ PS=2.84U PD=5.3U
M$151 AVDD|AVSS|VDD|VSS AVDD|AVSS|VDD|VSS AVDD|AVSS|VDD|VSS AVDD|AVSS|VDD|VSS
+ pfet_03v3 L=2U W=2U AS=1.3P AD=0.84P PS=5.3U PD=2.84U
M$152 AVDD|AVSS|VDD|VSS AVDD|AVSS|VDD|VSS AVDD|AVSS|VDD|VSS AVDD|AVSS|VDD|VSS
+ pfet_03v3 L=2U W=2U AS=0.84P AD=1.3P PS=2.84U PD=5.3U
M$153 AVDD|AVSS|VDD|VSS AVDD|AVSS|VDD|VSS AVDD|AVSS|VDD|VSS AVDD|AVSS|VDD|VSS
+ pfet_03v3 L=2U W=2U AS=1.3P AD=0.84P PS=5.3U PD=2.84U
M$154 AVDD|AVSS|VDD|VSS AVDD|AVSS|VDD|VSS AVDD|AVSS|VDD|VSS AVDD|AVSS|VDD|VSS
+ pfet_03v3 L=2U W=2U AS=0.84P AD=1.3P PS=2.84U PD=5.3U
M$155 \$145 \$25 \$2 AVDD|AVSS|VDD|VSS pfet_03v3 L=2U W=2U AS=1.3P AD=0.84P
+ PS=5.3U PD=2.84U
M$156 \$146 \$25 \$145 AVDD|AVSS|VDD|VSS pfet_03v3 L=2U W=2U AS=0.84P AD=1.3P
+ PS=2.84U PD=5.3U
M$157 \$147 \$25 \$116 AVDD|AVSS|VDD|VSS pfet_03v3 L=2U W=2U AS=1.3P AD=0.84P
+ PS=5.3U PD=2.84U
M$158 \$1 \$25 \$147 AVDD|AVSS|VDD|VSS pfet_03v3 L=2U W=2U AS=0.84P AD=1.3P
+ PS=2.84U PD=5.3U
M$159 AVDD|AVSS|VDD|VSS AVDD|AVSS|VDD|VSS AVDD|AVSS|VDD|VSS AVDD|AVSS|VDD|VSS
+ pfet_03v3 L=2U W=2U AS=1.3P AD=0.84P PS=5.3U PD=2.84U
M$160 AVDD|AVSS|VDD|VSS AVDD|AVSS|VDD|VSS AVDD|AVSS|VDD|VSS AVDD|AVSS|VDD|VSS
+ pfet_03v3 L=2U W=2U AS=0.84P AD=1.3P PS=2.84U PD=5.3U
M$161 AVDD|AVSS|VDD|VSS AVDD|AVSS|VDD|VSS AVDD|AVSS|VDD|VSS AVDD|AVSS|VDD|VSS
+ pfet_03v3 L=2U W=2U AS=1.3P AD=0.84P PS=5.3U PD=2.84U
M$162 AVDD|AVSS|VDD|VSS AVDD|AVSS|VDD|VSS AVDD|AVSS|VDD|VSS AVDD|AVSS|VDD|VSS
+ pfet_03v3 L=2U W=2U AS=0.84P AD=1.3P PS=2.84U PD=5.3U
M$163 \$148 \$175 \$25 AVDD|AVSS|VDD|VSS pfet_03v3 L=2U W=2U AS=1.3P AD=0.84P
+ PS=5.3U PD=2.84U
M$164 \$30 \$175 \$148 AVDD|AVSS|VDD|VSS pfet_03v3 L=2U W=2U AS=0.84P AD=1.3P
+ PS=2.84U PD=5.3U
M$165 \$149 \$260 \$30 AVDD|AVSS|VDD|VSS pfet_03v3 L=2U W=2U AS=1.3P AD=0.84P
+ PS=5.3U PD=2.84U
M$166 \$259 \$260 \$149 AVDD|AVSS|VDD|VSS pfet_03v3 L=2U W=2U AS=0.84P AD=1.3P
+ PS=2.84U PD=5.3U
M$167 AVDD|AVSS|VDD|VSS AVDD|AVSS|VDD|VSS AVDD|AVSS|VDD|VSS AVDD|AVSS|VDD|VSS
+ pfet_03v3 L=2U W=2U AS=1.3P AD=0.84P PS=5.3U PD=2.84U
M$168 AVDD|AVSS|VDD|VSS AVDD|AVSS|VDD|VSS AVDD|AVSS|VDD|VSS AVDD|AVSS|VDD|VSS
+ pfet_03v3 L=2U W=2U AS=0.84P AD=1.3P PS=2.84U PD=5.3U
M$169 AVDD|AVSS|VDD|VSS AVDD|AVSS|VDD|VSS AVDD|AVSS|VDD|VSS AVDD|AVSS|VDD|VSS
+ pfet_03v3 L=2U W=2U AS=1.3P AD=0.84P PS=5.3U PD=2.84U
M$170 AVDD|AVSS|VDD|VSS AVDD|AVSS|VDD|VSS AVDD|AVSS|VDD|VSS AVDD|AVSS|VDD|VSS
+ pfet_03v3 L=2U W=2U AS=0.84P AD=1.3P PS=2.84U PD=5.3U
M$171 \$150 \$176 \$921 AVDD|AVSS|VDD|VSS pfet_03v3 L=2U W=2U AS=1.3P AD=0.84P
+ PS=5.3U PD=2.84U
M$172 AVDD|AVSS|VDD|VSS \$176 \$150 AVDD|AVSS|VDD|VSS pfet_03v3 L=2U W=2U
+ AS=0.84P AD=1.3P PS=2.84U PD=5.3U
M$173 \$151 \$176 AVDD|AVSS|VDD|VSS AVDD|AVSS|VDD|VSS pfet_03v3 L=2U W=2U
+ AS=1.3P AD=0.84P PS=5.3U PD=2.84U
M$174 \$176 \$176 \$151 AVDD|AVSS|VDD|VSS pfet_03v3 L=2U W=2U AS=0.84P AD=1.3P
+ PS=2.84U PD=5.3U
M$175 AVDD|AVSS|VDD|VSS AVDD|AVSS|VDD|VSS AVDD|AVSS|VDD|VSS AVDD|AVSS|VDD|VSS
+ pfet_03v3 L=2U W=2U AS=1.3P AD=0.84P PS=5.3U PD=2.84U
M$176 AVDD|AVSS|VDD|VSS AVDD|AVSS|VDD|VSS AVDD|AVSS|VDD|VSS AVDD|AVSS|VDD|VSS
+ pfet_03v3 L=2U W=2U AS=0.84P AD=1.3P PS=2.84U PD=5.3U
M$177 AVDD|AVSS|VDD|VSS AVDD|AVSS|VDD|VSS AVDD|AVSS|VDD|VSS AVDD|AVSS|VDD|VSS
+ pfet_03v3 L=2U W=2U AS=1.3P AD=0.84P PS=5.3U PD=2.84U
M$178 AVDD|AVSS|VDD|VSS AVDD|AVSS|VDD|VSS AVDD|AVSS|VDD|VSS AVDD|AVSS|VDD|VSS
+ pfet_03v3 L=2U W=2U AS=0.84P AD=1.3P PS=2.84U PD=5.3U
M$179 \$152 \$26 \$3 AVDD|AVSS|VDD|VSS pfet_03v3 L=2U W=2U AS=1.3P AD=0.84P
+ PS=5.3U PD=2.84U
M$180 \$153 \$26 \$152 AVDD|AVSS|VDD|VSS pfet_03v3 L=2U W=2U AS=0.84P AD=1.3P
+ PS=2.84U PD=5.3U
M$181 \$154 \$26 \$117 AVDD|AVSS|VDD|VSS pfet_03v3 L=2U W=2U AS=1.3P AD=0.84P
+ PS=5.3U PD=2.84U
M$182 \$2 \$26 \$154 AVDD|AVSS|VDD|VSS pfet_03v3 L=2U W=2U AS=0.84P AD=1.3P
+ PS=2.84U PD=5.3U
M$183 AVDD|AVSS|VDD|VSS AVDD|AVSS|VDD|VSS AVDD|AVSS|VDD|VSS AVDD|AVSS|VDD|VSS
+ pfet_03v3 L=2U W=2U AS=1.3P AD=0.84P PS=5.3U PD=2.84U
M$184 AVDD|AVSS|VDD|VSS AVDD|AVSS|VDD|VSS AVDD|AVSS|VDD|VSS AVDD|AVSS|VDD|VSS
+ pfet_03v3 L=2U W=2U AS=0.84P AD=1.3P PS=2.84U PD=5.3U
M$185 AVDD|AVSS|VDD|VSS AVDD|AVSS|VDD|VSS AVDD|AVSS|VDD|VSS AVDD|AVSS|VDD|VSS
+ pfet_03v3 L=2U W=2U AS=1.3P AD=0.84P PS=5.3U PD=2.84U
M$186 AVDD|AVSS|VDD|VSS AVDD|AVSS|VDD|VSS AVDD|AVSS|VDD|VSS AVDD|AVSS|VDD|VSS
+ pfet_03v3 L=2U W=2U AS=0.84P AD=1.3P PS=2.84U PD=5.3U
M$187 \$155 \$177 \$26 AVDD|AVSS|VDD|VSS pfet_03v3 L=2U W=2U AS=1.3P AD=0.84P
+ PS=5.3U PD=2.84U
M$188 \$31 \$177 \$155 AVDD|AVSS|VDD|VSS pfet_03v3 L=2U W=2U AS=0.84P AD=1.3P
+ PS=2.84U PD=5.3U
M$189 \$156 \$262 \$31 AVDD|AVSS|VDD|VSS pfet_03v3 L=2U W=2U AS=1.3P AD=0.84P
+ PS=5.3U PD=2.84U
M$190 \$261 \$262 \$156 AVDD|AVSS|VDD|VSS pfet_03v3 L=2U W=2U AS=0.84P AD=1.3P
+ PS=2.84U PD=5.3U
M$191 AVDD|AVSS|VDD|VSS AVDD|AVSS|VDD|VSS AVDD|AVSS|VDD|VSS AVDD|AVSS|VDD|VSS
+ pfet_03v3 L=2U W=2U AS=1.3P AD=0.84P PS=5.3U PD=2.84U
M$192 AVDD|AVSS|VDD|VSS AVDD|AVSS|VDD|VSS AVDD|AVSS|VDD|VSS AVDD|AVSS|VDD|VSS
+ pfet_03v3 L=2U W=2U AS=0.84P AD=1.3P PS=2.84U PD=5.3U
M$193 AVDD|AVSS|VDD|VSS AVDD|AVSS|VDD|VSS AVDD|AVSS|VDD|VSS AVDD|AVSS|VDD|VSS
+ pfet_03v3 L=2U W=2U AS=1.3P AD=0.84P PS=5.3U PD=2.84U
M$194 AVDD|AVSS|VDD|VSS AVDD|AVSS|VDD|VSS AVDD|AVSS|VDD|VSS AVDD|AVSS|VDD|VSS
+ pfet_03v3 L=2U W=2U AS=0.84P AD=1.3P PS=2.84U PD=5.3U
M$195 \$157 \$178 \$923 AVDD|AVSS|VDD|VSS pfet_03v3 L=2U W=2U AS=1.3P AD=0.84P
+ PS=5.3U PD=2.84U
M$196 AVDD|AVSS|VDD|VSS \$178 \$157 AVDD|AVSS|VDD|VSS pfet_03v3 L=2U W=2U
+ AS=0.84P AD=1.3P PS=2.84U PD=5.3U
M$197 \$158 \$178 AVDD|AVSS|VDD|VSS AVDD|AVSS|VDD|VSS pfet_03v3 L=2U W=2U
+ AS=1.3P AD=0.84P PS=5.3U PD=2.84U
M$198 \$178 \$178 \$158 AVDD|AVSS|VDD|VSS pfet_03v3 L=2U W=2U AS=0.84P AD=1.3P
+ PS=2.84U PD=5.3U
M$199 AVDD|AVSS|VDD|VSS AVDD|AVSS|VDD|VSS AVDD|AVSS|VDD|VSS AVDD|AVSS|VDD|VSS
+ pfet_03v3 L=2U W=2U AS=1.3P AD=0.84P PS=5.3U PD=2.84U
M$200 AVDD|AVSS|VDD|VSS AVDD|AVSS|VDD|VSS AVDD|AVSS|VDD|VSS AVDD|AVSS|VDD|VSS
+ pfet_03v3 L=2U W=2U AS=0.84P AD=1.3P PS=2.84U PD=5.3U
M$201 AVDD|AVSS|VDD|VSS AVDD|AVSS|VDD|VSS AVDD|AVSS|VDD|VSS AVDD|AVSS|VDD|VSS
+ pfet_03v3 L=2U W=2U AS=1.3P AD=0.84P PS=5.3U PD=2.84U
M$202 AVDD|AVSS|VDD|VSS AVDD|AVSS|VDD|VSS AVDD|AVSS|VDD|VSS AVDD|AVSS|VDD|VSS
+ pfet_03v3 L=2U W=2U AS=0.84P AD=1.3P PS=2.84U PD=5.3U
M$203 \$159 \$27 \$4 AVDD|AVSS|VDD|VSS pfet_03v3 L=2U W=2U AS=1.3P AD=0.84P
+ PS=5.3U PD=2.84U
M$204 \$160 \$27 \$159 AVDD|AVSS|VDD|VSS pfet_03v3 L=2U W=2U AS=0.84P AD=1.3P
+ PS=2.84U PD=5.3U
M$205 \$161 \$27 \$118 AVDD|AVSS|VDD|VSS pfet_03v3 L=2U W=2U AS=1.3P AD=0.84P
+ PS=5.3U PD=2.84U
M$206 \$3 \$27 \$161 AVDD|AVSS|VDD|VSS pfet_03v3 L=2U W=2U AS=0.84P AD=1.3P
+ PS=2.84U PD=5.3U
M$207 AVDD|AVSS|VDD|VSS AVDD|AVSS|VDD|VSS AVDD|AVSS|VDD|VSS AVDD|AVSS|VDD|VSS
+ pfet_03v3 L=2U W=2U AS=1.3P AD=0.84P PS=5.3U PD=2.84U
M$208 AVDD|AVSS|VDD|VSS AVDD|AVSS|VDD|VSS AVDD|AVSS|VDD|VSS AVDD|AVSS|VDD|VSS
+ pfet_03v3 L=2U W=2U AS=0.84P AD=1.3P PS=2.84U PD=5.3U
M$209 AVDD|AVSS|VDD|VSS AVDD|AVSS|VDD|VSS AVDD|AVSS|VDD|VSS AVDD|AVSS|VDD|VSS
+ pfet_03v3 L=2U W=2U AS=1.3P AD=0.84P PS=5.3U PD=2.84U
M$210 AVDD|AVSS|VDD|VSS AVDD|AVSS|VDD|VSS AVDD|AVSS|VDD|VSS AVDD|AVSS|VDD|VSS
+ pfet_03v3 L=2U W=2U AS=0.84P AD=1.3P PS=2.84U PD=5.3U
M$211 \$162 \$179 \$27 AVDD|AVSS|VDD|VSS pfet_03v3 L=2U W=2U AS=1.3P AD=0.84P
+ PS=5.3U PD=2.84U
M$212 \$32 \$179 \$162 AVDD|AVSS|VDD|VSS pfet_03v3 L=2U W=2U AS=0.84P AD=1.3P
+ PS=2.84U PD=5.3U
M$213 \$163 \$264 \$32 AVDD|AVSS|VDD|VSS pfet_03v3 L=2U W=2U AS=1.3P AD=0.84P
+ PS=5.3U PD=2.84U
M$214 \$263 \$264 \$163 AVDD|AVSS|VDD|VSS pfet_03v3 L=2U W=2U AS=0.84P AD=1.3P
+ PS=2.84U PD=5.3U
M$215 AVDD|AVSS|VDD|VSS AVDD|AVSS|VDD|VSS AVDD|AVSS|VDD|VSS AVDD|AVSS|VDD|VSS
+ pfet_03v3 L=2U W=2U AS=1.3P AD=0.84P PS=5.3U PD=2.84U
M$216 AVDD|AVSS|VDD|VSS AVDD|AVSS|VDD|VSS AVDD|AVSS|VDD|VSS AVDD|AVSS|VDD|VSS
+ pfet_03v3 L=2U W=2U AS=0.84P AD=1.3P PS=2.84U PD=5.3U
M$217 AVDD|AVSS|VDD|VSS AVDD|AVSS|VDD|VSS AVDD|AVSS|VDD|VSS AVDD|AVSS|VDD|VSS
+ pfet_03v3 L=2U W=2U AS=1.3P AD=0.84P PS=5.3U PD=2.84U
M$218 AVDD|AVSS|VDD|VSS AVDD|AVSS|VDD|VSS AVDD|AVSS|VDD|VSS AVDD|AVSS|VDD|VSS
+ pfet_03v3 L=2U W=2U AS=0.84P AD=1.3P PS=2.84U PD=5.3U
M$219 \$164 \$180 \$925 AVDD|AVSS|VDD|VSS pfet_03v3 L=2U W=2U AS=1.3P AD=0.84P
+ PS=5.3U PD=2.84U
M$220 AVDD|AVSS|VDD|VSS \$180 \$164 AVDD|AVSS|VDD|VSS pfet_03v3 L=2U W=2U
+ AS=0.84P AD=1.3P PS=2.84U PD=5.3U
M$221 \$165 \$180 AVDD|AVSS|VDD|VSS AVDD|AVSS|VDD|VSS pfet_03v3 L=2U W=2U
+ AS=1.3P AD=0.84P PS=5.3U PD=2.84U
M$222 \$180 \$180 \$165 AVDD|AVSS|VDD|VSS pfet_03v3 L=2U W=2U AS=0.84P AD=1.3P
+ PS=2.84U PD=5.3U
M$223 AVDD|AVSS|VDD|VSS AVDD|AVSS|VDD|VSS AVDD|AVSS|VDD|VSS AVDD|AVSS|VDD|VSS
+ pfet_03v3 L=2U W=2U AS=1.3P AD=0.84P PS=5.3U PD=2.84U
M$224 AVDD|AVSS|VDD|VSS AVDD|AVSS|VDD|VSS AVDD|AVSS|VDD|VSS AVDD|AVSS|VDD|VSS
+ pfet_03v3 L=2U W=2U AS=0.84P AD=1.3P PS=2.84U PD=5.3U
M$225 AVDD|AVSS|VDD|VSS AVDD|AVSS|VDD|VSS AVDD|AVSS|VDD|VSS AVDD|AVSS|VDD|VSS
+ pfet_03v3 L=2U W=2U AS=1.3P AD=0.84P PS=5.3U PD=2.84U
M$226 AVDD|AVSS|VDD|VSS AVDD|AVSS|VDD|VSS AVDD|AVSS|VDD|VSS AVDD|AVSS|VDD|VSS
+ pfet_03v3 L=2U W=2U AS=0.84P AD=1.3P PS=2.84U PD=5.3U
M$227 \$167 \$28 B2 AVDD|AVSS|VDD|VSS pfet_03v3 L=2U W=2U AS=1.3P AD=0.84P
+ PS=5.3U PD=2.84U
M$228 \$168 \$28 \$167 AVDD|AVSS|VDD|VSS pfet_03v3 L=2U W=2U AS=0.84P AD=1.3P
+ PS=2.84U PD=5.3U
M$229 \$169 \$28 \$119 AVDD|AVSS|VDD|VSS pfet_03v3 L=2U W=2U AS=1.3P AD=0.84P
+ PS=5.3U PD=2.84U
M$230 \$4 \$28 \$169 AVDD|AVSS|VDD|VSS pfet_03v3 L=2U W=2U AS=0.84P AD=1.3P
+ PS=2.84U PD=5.3U
M$231 AVDD|AVSS|VDD|VSS AVDD|AVSS|VDD|VSS AVDD|AVSS|VDD|VSS AVDD|AVSS|VDD|VSS
+ pfet_03v3 L=2U W=2U AS=1.3P AD=0.84P PS=5.3U PD=2.84U
M$232 AVDD|AVSS|VDD|VSS AVDD|AVSS|VDD|VSS AVDD|AVSS|VDD|VSS AVDD|AVSS|VDD|VSS
+ pfet_03v3 L=2U W=2U AS=0.84P AD=1.3P PS=2.84U PD=5.3U
M$233 AVDD|AVSS|VDD|VSS AVDD|AVSS|VDD|VSS AVDD|AVSS|VDD|VSS AVDD|AVSS|VDD|VSS
+ pfet_03v3 L=2U W=2U AS=1.3P AD=0.84P PS=5.3U PD=2.84U
M$234 AVDD|AVSS|VDD|VSS AVDD|AVSS|VDD|VSS AVDD|AVSS|VDD|VSS AVDD|AVSS|VDD|VSS
+ pfet_03v3 L=2U W=2U AS=0.84P AD=1.3P PS=2.84U PD=5.3U
M$235 \$170 \$181 \$28 AVDD|AVSS|VDD|VSS pfet_03v3 L=2U W=2U AS=1.3P AD=0.84P
+ PS=5.3U PD=2.84U
M$236 \$33 \$181 \$170 AVDD|AVSS|VDD|VSS pfet_03v3 L=2U W=2U AS=0.84P AD=1.3P
+ PS=2.84U PD=5.3U
M$237 \$171 \$266 \$33 AVDD|AVSS|VDD|VSS pfet_03v3 L=2U W=2U AS=1.3P AD=0.84P
+ PS=5.3U PD=2.84U
M$238 \$265 \$266 \$171 AVDD|AVSS|VDD|VSS pfet_03v3 L=2U W=2U AS=0.84P AD=1.3P
+ PS=2.84U PD=5.3U
M$239 AVDD|AVSS|VDD|VSS AVDD|AVSS|VDD|VSS AVDD|AVSS|VDD|VSS AVDD|AVSS|VDD|VSS
+ pfet_03v3 L=2U W=2U AS=1.3P AD=0.84P PS=5.3U PD=2.84U