* NGSPICE file created from Filter_TOP.ext - technology: gf180mcuD

.subckt Filter_TOP IN_NEG IN_POS VCM VSS I1U VDD I1N IBNOUT OUT IBPOUT
X0 VSS VSS VSS VSS nfet_03v3 ad=1.22p pd=5.22u as=0 ps=0 w=2u l=2u
X1 a_52635_49681# a_52635_34067# VDD VDD pfet_03v3 ad=1.3p pd=5.3u as=0.84p ps=2.84u w=2u l=2u
X2 VDD VDD VDD VDD pfet_03v3 ad=1.3p pd=5.3u as=0 ps=0 w=2u l=2u
X3 VDD VDD VDD VDD pfet_03v3 ad=1.3p pd=5.3u as=0 ps=0 w=2u l=2u
X4 VDD VDD VDD VDD pfet_03v3 ad=1.3p pd=5.3u as=0 ps=0 w=2u l=2u
X5 VDD VDD VDD VDD pfet_03v3 ad=1.3p pd=5.3u as=0 ps=0 w=2u l=2u
X6 a_100820_11614# a_57977_n12421# a_102796_6405# VSS nfet_03v3 ad=1.22p pd=5.22u as=0.8p ps=2.8u w=2u l=2u
X7 a_31284_4481# a_30324_4421# a_30724_6405# VSS nfet_03v3 ad=1.22p pd=5.22u as=0.8p ps=2.8u w=2u l=2u
X8 VDD VDD VDD VDD pfet_03v3 ad=1.3p pd=5.3u as=0 ps=0 w=2u l=2u
X9 a_102756_12380# a_100820_10448# VDD VDD pfet_03v3 ad=0.84p pd=2.84u as=1.3p ps=5.3u w=2u l=2u
X10 a_36032_n36322# a_53829_n36382# a_55635_n36322# VDD pfet_03v3 ad=1.3p pd=5.3u as=0.84p ps=2.84u w=2u l=2u
X11 a_33249_35053# a_35502_25545# VSS VSS nfet_03v3 ad=0.8p pd=2.8u as=1.22p ps=5.22u w=2u l=2u
X12 VSS VSS VSS VSS nfet_03v3 ad=0.8p pd=2.8u as=0 ps=0 w=2u l=2u
X13 VSS VSS VSS VSS nfet_03v3 ad=1.22p pd=5.22u as=0 ps=0 w=2u l=2u
X14 a_101350_10448# a_100820_10448# a_100820_10448# VDD pfet_03v3 ad=0.84p pd=2.84u as=1.3p ps=5.3u w=2u l=2u
X15 a_52635_49681# a_52635_34067# VDD VDD pfet_03v3 ad=0.84p pd=2.84u as=0.84p ps=2.84u w=2u l=2u
X16 a_38619_n2651# a_31953_n19727# a_38097_n2651# VSS nfet_03v3 ad=0.8p pd=2.8u as=1.22p ps=5.22u w=2u l=2u
X17 VDD VDD VDD VDD pfet_03v3 ad=1.3p pd=5.3u as=0 ps=0 w=2u l=2u
X18 VSS VSS VSS VSS nfet_03v3 ad=0.8p pd=2.8u as=0 ps=0 w=2u l=2u
X19 VSS VSS VSS VSS nfet_03v3 ad=0.8p pd=2.8u as=0 ps=0 w=2u l=2u
X20 VDD a_31699_20742# a_35502_24538# VDD pfet_03v3 ad=0.84p pd=2.84u as=1.3p ps=5.3u w=2u l=2u
X21 VSS VSS VSS VSS nfet_03v3 ad=1.22p pd=5.22u as=0 ps=0 w=2u l=2u
X22 a_43817_6405# a_41891_4481# VSS VSS nfet_03v3 ad=0.8p pd=2.8u as=1.22p ps=5.22u w=2u l=2u
X23 VSS VSS VSS VSS nfet_03v3 ad=0.8p pd=2.8u as=0 ps=0 w=2u l=2u
X24 VSS VSS VSS VSS nfet_03v3 ad=0.8p pd=2.8u as=0 ps=0 w=2u l=2u
X25 VDD VDD VDD VDD pfet_03v3 ad=0.84p pd=2.84u as=0 ps=0 w=2u l=2u
X26 a_105365_n7865# a_71281_n8397# a_104527_n7865# VDD pfet_03v3 ad=0.84p pd=2.84u as=1.3p ps=5.3u w=2u l=2u
X27 VDD a_31699_20742# a_35502_25545# VDD pfet_03v3 ad=0.84p pd=2.84u as=0.84p ps=2.84u w=2u l=2u
X28 a_52635_34067# a_35922_19591# a_52635_48695# VDD pfet_03v3 ad=1.3p pd=5.3u as=0.84p ps=2.84u w=2u l=2u
X29 a_58851_n7138# a_50751_n19729# a_58329_n8035# VSS nfet_03v3 ad=0.8p pd=2.8u as=1.22p ps=5.22u w=2u l=2u
X30 a_53145_n19597# a_50751_n19729# a_52585_n19597# VSS nfet_03v3 ad=1.22p pd=5.22u as=0.8p ps=2.8u w=2u l=2u
X31 a_71864_n30339# a_65486_n36322# a_71342_n30339# VSS nfet_03v3 ad=0.8p pd=2.8u as=1.22p ps=5.22u w=2u l=2u
X32 VDD VDD VDD VDD pfet_03v3 ad=1.3p pd=5.3u as=0 ps=0 w=2u l=2u
X33 VSS VSS VSS VSS nfet_03v3 ad=1.22p pd=5.22u as=0 ps=0 w=2u l=2u
X34 a_106809_n17715# a_71281_n8397# a_106501_n21335# VDD pfet_03v3 ad=1.3p pd=5.3u as=1.3p ps=5.3u w=2u l=2u
X35 VSS VSS VSS VSS nfet_03v3 ad=0.8p pd=2.8u as=0 ps=0 w=2u l=2u
X36 VSS VSS VSS VSS nfet_03v3 ad=1.22p pd=5.22u as=0 ps=0 w=2u l=2u
X37 VDD VDD VDD VDD pfet_03v3 ad=0.84p pd=2.84u as=0 ps=0 w=2u l=2u
X38 VDD VDD VDD VDD pfet_03v3 ad=1.3p pd=5.3u as=0 ps=0 w=2u l=2u
X39 a_105933_n2435# a_71281_n8397# a_105365_n2435# VDD pfet_03v3 ad=0.84p pd=2.84u as=0.84p ps=2.84u w=2u l=2u
X40 VSS VSS VSS VSS nfet_03v3 ad=0.8p pd=2.8u as=0 ps=0 w=2u l=2u
X41 VDD VDD VDD VDD pfet_03v3 ad=1.3p pd=5.3u as=0 ps=0 w=2u l=2u
X42 a_52635_34067# a_35922_19591# a_52635_48695# VDD pfet_03v3 ad=0.84p pd=2.84u as=0.84p ps=2.84u w=2u l=2u
X43 VDD VDD VDD VDD pfet_03v3 ad=1.3p pd=5.3u as=0 ps=0 w=2u l=2u
X44 a_33249_48695# a_31699_20742# VDD VDD pfet_03v3 ad=1.3p pd=5.3u as=0.84p ps=2.84u w=2u l=2u
X45 VSS VSS VSS VSS nfet_03v3 ad=1.22p pd=5.22u as=0 ps=0 w=2u l=2u
X46 a_52635_48695# a_52635_34067# VDD VDD pfet_03v3 ad=1.3p pd=5.3u as=0.84p ps=2.84u w=2u l=2u
X47 VSS VSS VSS VSS nfet_03v3 ad=0.8p pd=2.8u as=0 ps=0 w=2u l=2u
X48 OUT a_35922_19591# a_52635_49681# VDD pfet_03v3 ad=1.3p pd=5.3u as=0.84p ps=2.84u w=2u l=2u
X49 VDD VDD VDD VDD pfet_03v3 ad=1.3p pd=5.3u as=0 ps=0 w=2u l=2u
X50 VDD VDD VDD VDD pfet_03v3 ad=1.3p pd=5.3u as=0 ps=0 w=2u l=2u
X51 VSS VSS VSS VSS nfet_03v3 ad=1.22p pd=5.22u as=0 ps=0 w=2u l=2u
X52 VSS VSS VSS VSS nfet_03v3 ad=1.22p pd=5.22u as=0 ps=0 w=2u l=2u
X53 VSS VSS VSS VSS nfet_03v3 ad=0.8p pd=2.8u as=0 ps=0 w=2u l=2u
X54 a_33249_48695# a_31699_20742# VDD VDD pfet_03v3 ad=1.3p pd=5.3u as=0.84p ps=2.84u w=2u l=2u
X55 VDD a_31699_20742# a_33249_48695# VDD pfet_03v3 ad=0.84p pd=2.84u as=0.84p ps=2.84u w=2u l=2u
X56 VDD VDD VDD VDD pfet_03v3 ad=1.3p pd=5.3u as=0 ps=0 w=2u l=2u
X57 VSS VSS VSS VSS nfet_03v3 ad=0.732p pd=3.62u as=0 ps=0 w=1.2u l=2u
X58 a_31284_n30339# a_30324_n30399# a_30724_n30339# VSS nfet_03v3 ad=1.22p pd=5.22u as=0.8p ps=2.8u w=2u l=2u
X59 VSS VSS VSS VSS nfet_03v3 ad=1.22p pd=5.22u as=0 ps=0 w=2u l=2u
X60 VDD VDD VDD VDD pfet_03v3 ad=0.84p pd=2.84u as=0 ps=0 w=2u l=2u
X61 OUT a_35922_19591# a_52635_49681# VDD pfet_03v3 ad=0.84p pd=2.84u as=0.84p ps=2.84u w=2u l=2u
X62 a_33249_35053# a_35502_24538# OUT VSS nfet_03v3 ad=1.22p pd=5.22u as=0.8p ps=2.8u w=2u l=2u
X63 VDD VDD VDD VDD pfet_03v3 ad=0.84p pd=2.84u as=0 ps=0 w=2u l=2u
X64 a_38097_n5342# a_100992_n29313# a_101392_n29181# VSS nfet_03v3 ad=1.22p pd=5.22u as=0.8p ps=2.8u w=2u l=2u
X65 VDD a_71281_n8397# a_71281_n8397# VDD pfet_03v3 ad=0.84p pd=2.84u as=0.84p ps=2.84u w=2u l=2u
X66 a_101392_6405# a_100992_4421# a_100820_10448# VSS nfet_03v3 ad=0.8p pd=2.8u as=1.22p ps=5.22u w=2u l=2u
X67 VDD VDD VDD VDD pfet_03v3 ad=1.3p pd=5.3u as=0 ps=0 w=2u l=2u
X68 a_52635_48695# a_35922_19591# a_52635_34067# VDD pfet_03v3 ad=0.84p pd=2.84u as=1.3p ps=5.3u w=2u l=2u
X69 VDD a_31699_20742# a_33249_48695# VDD pfet_03v3 ad=0.84p pd=2.84u as=0.84p ps=2.84u w=2u l=2u
X70 VSS VSS VSS VSS nfet_03v3 ad=1.22p pd=5.22u as=0 ps=0 w=2u l=2u
X71 VDD VDD VDD VDD pfet_03v3 ad=1.3p pd=5.3u as=0 ps=0 w=2u l=2u
X72 a_100235_n15000# a_71281_n8397# a_99667_n15000# VDD pfet_03v3 ad=0.84p pd=2.84u as=0.84p ps=2.84u w=2u l=2u
X73 VDD VDD VDD VDD pfet_03v3 ad=0.84p pd=2.84u as=0 ps=0 w=2u l=2u
X74 VSS VSS VSS VSS nfet_03v3 ad=1.22p pd=5.22u as=0 ps=0 w=2u l=2u
X75 a_73302_13546# a_71496_10388# a_71342_4481# VDD pfet_03v3 ad=0.84p pd=2.84u as=1.3p ps=5.3u w=2u l=2u
X76 a_30724_6405# a_30324_4421# a_30152_10448# VSS nfet_03v3 ad=0.8p pd=2.8u as=1.22p ps=5.22u w=2u l=2u
X77 VDD VDD VDD VDD pfet_03v3 ad=1.3p pd=5.3u as=0 ps=0 w=2u l=2u
X78 VSS VSS VSS VSS nfet_03v3 ad=1.22p pd=5.22u as=0 ps=0 w=2u l=2u
X79 VDD VDD VDD VDD pfet_03v3 ad=1.3p pd=5.3u as=0 ps=0 w=2u l=2u
X80 VDD VDD VDD VDD pfet_03v3 ad=0.84p pd=2.84u as=0 ps=0 w=2u l=2u
X81 VSS VSS VSS VSS nfet_03v3 ad=0.8p pd=2.8u as=0 ps=0 w=2u l=2u
X82 a_31831_n5342# a_32913_n8930# a_83725_n28415# VSS nfet_03v3 ad=1.22p pd=5.22u as=0.8p ps=2.8u w=2u l=2u
X83 a_45445_n18698# a_31953_n19727# a_44885_n17801# VSS nfet_03v3 ad=1.22p pd=5.22u as=0.8p ps=2.8u w=2u l=2u
X84 VSS VSS VSS VSS nfet_03v3 ad=1.22p pd=5.22u as=0 ps=0 w=2u l=2u
X85 VDD a_31699_20742# a_33249_48695# VDD pfet_03v3 ad=0.84p pd=2.84u as=1.3p ps=5.3u w=2u l=2u
X86 OUT a_35922_19591# a_52635_49681# VDD pfet_03v3 ad=0.84p pd=2.84u as=1.3p ps=5.3u w=2u l=2u
X87 VDD VDD VDD VDD pfet_03v3 ad=0.84p pd=2.84u as=0 ps=0 w=2u l=2u
X88 VSS VSS VSS VSS nfet_03v3 ad=0.8p pd=2.8u as=0 ps=0 w=2u l=2u
X89 VDD VDD VDD VDD pfet_03v3 ad=0.84p pd=2.84u as=0 ps=0 w=2u l=2u
X90 VDD VDD VDD VDD pfet_03v3 ad=1.3p pd=5.3u as=0 ps=0 w=2u l=2u
X91 VSS VSS VSS VSS nfet_03v3 ad=1.22p pd=5.22u as=0 ps=0 w=2u l=2u
X92 a_51711_n5344# a_50751_n19729# a_51151_n5344# VSS nfet_03v3 ad=1.22p pd=5.22u as=0.8p ps=2.8u w=2u l=2u
X93 a_66551_n17803# a_50751_n19729# a_66029_n18700# VSS nfet_03v3 ad=0.8p pd=2.8u as=1.22p ps=5.22u w=2u l=2u
X94 a_33249_35053# a_33379_34917# a_33249_48695# VDD pfet_03v3 ad=0.84p pd=2.84u as=0.84p ps=2.84u w=2u l=2u
X95 VSS VSS VSS VSS nfet_03v3 ad=0.8p pd=2.8u as=0 ps=0 w=2u l=2u
X96 a_33249_35053# a_33379_34917# a_33249_48695# VDD pfet_03v3 ad=1.3p pd=5.3u as=0.84p ps=2.84u w=2u l=2u
X97 a_98829_n17715# a_71281_n8397# a_98299_n16810# VDD pfet_03v3 ad=1.3p pd=5.3u as=1.3p ps=5.3u w=2u l=2u
X98 OUT a_35922_19591# a_52635_49681# VDD pfet_03v3 ad=1.3p pd=5.3u as=0.84p ps=2.84u w=2u l=2u
X99 VSS VSS VSS VSS nfet_03v3 ad=0.8p pd=2.8u as=0 ps=0 w=2u l=2u
X100 a_73302_11614# a_71496_10388# VSS VDD pfet_03v3 ad=0.84p pd=2.84u as=1.3p ps=5.3u w=2u l=2u
X101 a_73268_n29181# a_65486_n36322# a_45445_n19595# VSS nfet_03v3 ad=0.8p pd=2.8u as=1.22p ps=5.22u w=2u l=2u
X102 a_90245_n6055# a_71281_n10073# a_60677_10448# VDD pfet_03v3 ad=1.3p pd=5.3u as=1.3p ps=5.3u w=2u l=2u
X103 VDD VDD VDD VDD pfet_03v3 ad=1.3p pd=5.3u as=0 ps=0 w=2u l=2u
X104 VSS VSS VSS VSS nfet_03v3 ad=1.22p pd=5.22u as=0 ps=0 w=2u l=2u
X105 a_98829_n15000# a_71281_n8397# a_98299_n15905# VDD pfet_03v3 ad=1.3p pd=5.3u as=1.3p ps=5.3u w=2u l=2u
X106 a_51711_n14215# a_50751_n19729# a_51151_n14215# VSS nfet_03v3 ad=1.22p pd=5.22u as=0.8p ps=2.8u w=2u l=2u
X107 VDD VDD VDD VDD pfet_03v3 ad=1.3p pd=5.3u as=0 ps=0 w=2u l=2u
X108 VDD VDD VDD VDD pfet_03v3 ad=0.84p pd=2.84u as=0 ps=0 w=2u l=2u
X109 VSS VSS VSS VSS nfet_03v3 ad=1.22p pd=5.22u as=0 ps=0 w=2u l=2u
X110 VSS VSS VSS VSS nfet_03v3 ad=1.22p pd=5.22u as=0 ps=0 w=2u l=2u
X111 a_33249_48695# a_33379_34007# a_33249_34067# VDD pfet_03v3 ad=0.84p pd=2.84u as=0.84p ps=2.84u w=2u l=2u
X112 VDD VDD VDD VDD pfet_03v3 ad=0.78p pd=3.7u as=0 ps=0 w=1.2u l=2u
X113 VDD VDD VDD VDD pfet_03v3 ad=1.3p pd=5.3u as=0 ps=0 w=2u l=2u
X114 a_65486_n35156# a_65486_n35156# a_67422_n36322# VDD pfet_03v3 ad=1.3p pd=5.3u as=0.84p ps=2.84u w=2u l=2u
X115 a_60285_n2653# a_50751_n19729# a_59763_n3550# VSS nfet_03v3 ad=0.8p pd=2.8u as=1.22p ps=5.22u w=2u l=2u
X116 a_71281_n8397# a_71281_n8397# VDD VDD pfet_03v3 ad=0.84p pd=2.84u as=1.3p ps=5.3u w=2u l=2u
X117 VDD VDD VDD VDD pfet_03v3 ad=0.84p pd=2.84u as=0 ps=0 w=2u l=2u
X118 a_105365_n15000# a_71281_n8397# a_104527_n15000# VDD pfet_03v3 ad=0.84p pd=2.84u as=1.3p ps=5.3u w=2u l=2u
X119 VDD VDD VDD VDD pfet_03v3 ad=1.3p pd=5.3u as=0 ps=0 w=2u l=2u
X120 a_106676_n30339# a_100820_n36322# a_108602_n27257# VSS nfet_03v3 ad=1.22p pd=5.22u as=0.8p ps=2.8u w=2u l=2u
X121 VDD VDD VDD VDD pfet_03v3 ad=1.3p pd=5.3u as=0 ps=0 w=2u l=2u
X122 VSS VSS VSS VSS nfet_03v3 ad=0.8p pd=2.8u as=0 ps=0 w=2u l=2u
X123 a_40613_n8930# a_31953_n19727# a_40053_n8930# VSS nfet_03v3 ad=1.22p pd=5.22u as=0.8p ps=2.8u w=2u l=2u
X124 a_33249_48695# a_33379_34007# a_33249_34067# VDD pfet_03v3 ad=0.84p pd=2.84u as=0.84p ps=2.84u w=2u l=2u
X125 VDD VDD VDD VDD pfet_03v3 ad=1.3p pd=5.3u as=0 ps=0 w=2u l=2u
X126 VDD VDD VDD VDD pfet_03v3 ad=0.84p pd=2.84u as=0 ps=0 w=2u l=2u
X127 OUT a_35922_19591# a_52635_49681# VDD pfet_03v3 ad=0.84p pd=2.84u as=0.84p ps=2.84u w=2u l=2u
X128 VSS VSS VSS VSS nfet_03v3 ad=1.22p pd=5.22u as=0 ps=0 w=2u l=2u
X129 VSS VSS VSS VSS nfet_03v3 ad=1.22p pd=5.22u as=0 ps=0 w=2u l=6u
X130 a_110225_n1530# a_71281_n8397# a_109695_n5150# VDD pfet_03v3 ad=1.3p pd=5.3u as=1.3p ps=5.3u w=2u l=2u
X131 a_52635_48695# a_35922_19591# a_52635_34067# VDD pfet_03v3 ad=0.84p pd=2.84u as=1.3p ps=5.3u w=2u l=2u
X132 a_88271_n3340# a_71281_n10073# a_87433_n3340# VDD pfet_03v3 ad=0.84p pd=2.84u as=1.3p ps=5.3u w=2u l=2u
X133 VDD a_83153_11614# a_90935_5639# VSS nfet_03v3 ad=1.22p pd=5.22u as=0.8p ps=2.8u w=2u l=2u
X134 VDD VDD VDD VDD pfet_03v3 ad=1.3p pd=5.3u as=0 ps=0 w=2u l=2u
X135 VDD VDD VDD VDD pfet_03v3 ad=1.3p pd=5.3u as=0 ps=0 w=2u l=2u
X136 VSS VSS VSS VSS nfet_03v3 ad=0.8p pd=2.8u as=0 ps=0 w=2u l=2u
X137 a_114516_10448# a_86903_n14095# a_89715_n17715# VDD pfet_03v3 ad=0.84p pd=2.84u as=1.3p ps=5.3u w=2u l=2u
X138 VDD VDD VDD VDD pfet_03v3 ad=0.84p pd=2.84u as=0 ps=0 w=2u l=2u
X139 a_39179_n8033# a_31953_n19727# a_38619_n8033# VSS nfet_03v3 ad=1.22p pd=5.22u as=0.8p ps=2.8u w=2u l=2u
X140 VDD a_31699_20742# a_35502_25545# VDD pfet_03v3 ad=1.3p pd=5.3u as=0.84p ps=2.84u w=2u l=2u
X141 VSS VSS VSS VSS nfet_03v3 ad=1.22p pd=5.22u as=0 ps=0 w=2u l=2u
X142 VDD VDD VDD VDD pfet_03v3 ad=1.3p pd=5.3u as=0 ps=0 w=2u l=2u
X143 VSS a_50751_n19729# a_50751_n19729# VSS nfet_03v3 ad=0.8p pd=2.8u as=1.22p ps=5.22u w=2u l=2u
X144 VDD VDD VDD VDD pfet_03v3 ad=1.3p pd=5.3u as=0 ps=0 w=2u l=2u
X145 a_84547_n15000# a_71281_n10073# a_83709_n14095# VDD pfet_03v3 ad=1.3p pd=5.3u as=1.3p ps=5.3u w=2u l=2u
X146 VDD VDD VDD VDD pfet_03v3 ad=0.84p pd=2.84u as=0 ps=0 w=2u l=2u
X147 a_100235_n20430# a_71281_n8397# a_99667_n20430# VDD pfet_03v3 ad=0.84p pd=2.84u as=0.84p ps=2.84u w=2u l=2u
X148 VDD VDD VDD VDD pfet_03v3 ad=1.3p pd=5.3u as=0 ps=0 w=2u l=2u
X149 a_52635_49681# a_35922_19591# OUT VDD pfet_03v3 ad=0.84p pd=2.84u as=1.3p ps=5.3u w=2u l=2u
X150 VDD a_65486_n35156# a_66016_n36322# VDD pfet_03v3 ad=1.3p pd=5.3u as=0.84p ps=2.84u w=2u l=2u
X151 a_67111_n2653# a_50751_n19729# a_66551_n1756# VSS nfet_03v3 ad=1.22p pd=5.22u as=0.8p ps=2.8u w=2u l=2u
X152 VDD VDD VDD VDD pfet_03v3 ad=1.3p pd=5.3u as=0 ps=0 w=2u l=2u
X153 VDD VDD VDD VDD pfet_03v3 ad=0.84p pd=2.84u as=0 ps=0 w=2u l=2u
X154 VDD VDD VDD VDD pfet_03v3 ad=1.3p pd=5.3u as=0 ps=0 w=2u l=2u
X155 VDD VDD VDD VDD pfet_03v3 ad=1.3p pd=5.3u as=0 ps=0 w=2u l=2u
X156 a_54579_n4447# a_50751_n19729# a_54019_n4447# VSS nfet_03v3 ad=1.22p pd=5.22u as=0.8p ps=2.8u w=2u l=2u
X157 a_32353_n7136# a_31953_n19727# a_31831_n7136# VSS nfet_03v3 ad=0.8p pd=2.8u as=1.22p ps=5.22u w=2u l=2u
X158 VSS VSS VSS VSS nfet_03v3 ad=0.8p pd=2.8u as=0 ps=0 w=2u l=2u
X159 VSS a_112559_4481# a_113081_5639# VSS nfet_03v3 ad=1.22p pd=5.22u as=0.8p ps=2.8u w=2u l=2u
X160 a_30324_n30399# a_30152_n36322# a_36530_n29181# VSS nfet_03v3 ad=1.22p pd=5.22u as=0.8p ps=2.8u w=2u l=2u
X161 VDD VDD VDD VDD pfet_03v3 ad=0.84p pd=2.84u as=0 ps=0 w=2u l=2u
X162 VDD VDD VDD VDD pfet_03v3 ad=0.84p pd=2.84u as=0 ps=0 w=2u l=2u
X163 VSS VSS VSS VSS nfet_03v3 ad=0.8p pd=2.8u as=0 ps=0 w=2u l=2u
X164 a_34347_n7136# a_31953_n19727# a_33787_n7136# VSS nfet_03v3 ad=1.22p pd=5.22u as=0.8p ps=2.8u w=2u l=2u
X165 VDD VDD VDD VDD pfet_03v3 ad=0.84p pd=2.84u as=0 ps=0 w=2u l=2u
X166 a_48349_n35156# a_47819_n35156# a_47819_n35156# VDD pfet_03v3 ad=0.84p pd=2.84u as=1.3p ps=5.3u w=2u l=2u
X167 VSS VSS VSS VSS nfet_03v3 ad=1.22p pd=5.22u as=0 ps=0 w=2u l=2u
X168 a_51711_n12421# a_83153_11614# a_89531_6405# VSS nfet_03v3 ad=1.22p pd=5.22u as=0.8p ps=2.8u w=2u l=2u
X169 a_101350_n34390# a_100820_n35156# a_100820_n36322# VDD pfet_03v3 ad=0.84p pd=2.84u as=1.3p ps=5.3u w=2u l=2u
X170 VSS VSS VSS VSS nfet_03v3 ad=0.8p pd=2.8u as=0 ps=0 w=2u l=2u
X171 VSS VSS VSS VSS nfet_03v3 ad=0.8p pd=2.8u as=0 ps=0 w=2u l=2u
X172 a_77225_4481# a_77225_4481# a_79151_5639# VSS nfet_03v3 ad=1.22p pd=5.22u as=0.8p ps=2.8u w=2u l=2u
X173 a_106676_4481# a_106830_10388# a_107230_10448# VDD pfet_03v3 ad=1.3p pd=5.3u as=0.84p ps=2.84u w=2u l=2u
X174 VDD VDD VDD VDD pfet_03v3 ad=1.3p pd=5.3u as=0 ps=0 w=2u l=2u
X175 VSS VSS VSS VSS nfet_03v3 ad=1.22p pd=5.22u as=0 ps=0 w=2u l=2u
X176 a_33249_48695# a_33379_34007# a_33249_34067# VDD pfet_03v3 ad=0.84p pd=2.84u as=0.84p ps=2.84u w=2u l=2u
X177 VSS VSS VSS VSS nfet_03v3 ad=0.8p pd=2.8u as=0 ps=0 w=2u l=2u
X178 VSS VSS VSS VSS nfet_03v3 ad=1.22p pd=5.22u as=0 ps=0 w=2u l=2u
X179 a_57417_n8932# a_50751_n19729# a_56895_n8932# VSS nfet_03v3 ad=0.8p pd=2.8u as=1.22p ps=5.22u w=2u l=2u
X180 VDD VDD VDD VDD pfet_03v3 ad=0.84p pd=2.84u as=0 ps=0 w=2u l=2u
X181 a_98829_n20430# a_71281_n8397# a_36032_n35156# VDD pfet_03v3 ad=1.3p pd=5.3u as=1.3p ps=5.3u w=2u l=2u
X182 VDD VDD VDD VDD pfet_03v3 ad=0.84p pd=2.84u as=0 ps=0 w=2u l=2u
X183 VDD VDD VDD VDD pfet_03v3 ad=1.3p pd=5.3u as=0 ps=0 w=2u l=2u
X184 VSS VSS VSS VSS nfet_03v3 ad=1.3725p pd=5.72u as=0 ps=0 w=2.25u l=2u
X185 VDD VDD VDD VDD pfet_03v3 ad=1.3p pd=5.3u as=0 ps=0 w=2u l=2u
X186 VDD VDD VDD VDD pfet_03v3 ad=0.84p pd=2.84u as=0 ps=0 w=2u l=2u
X187 a_30152_n35156# a_30152_n35156# a_32088_n34390# VDD pfet_03v3 ad=1.3p pd=5.3u as=0.84p ps=2.84u w=2u l=2u
X188 VSS VSS VSS VSS nfet_03v3 ad=1.22p pd=5.22u as=0 ps=0 w=2u l=2u
X189 VDD VDD VDD VDD pfet_03v3 ad=1.3p pd=5.3u as=0 ps=0 w=2u l=2u
X190 a_89563_13546# a_89163_10388# a_89033_13546# VDD pfet_03v3 ad=0.84p pd=2.84u as=1.3p ps=5.3u w=2u l=2u
X191 a_67422_13546# a_65486_10448# VDD VDD pfet_03v3 ad=0.84p pd=2.84u as=1.3p ps=5.3u w=2u l=2u
X192 VDD VDD VDD VDD pfet_03v3 ad=1.3p pd=5.3u as=0 ps=0 w=2u l=2u
X193 a_51151_n17803# a_50751_n19729# a_50629_n17803# VSS nfet_03v3 ad=0.8p pd=2.8u as=1.22p ps=5.22u w=2u l=2u
X194 VSS VSS VSS VSS nfet_03v3 ad=0.8p pd=2.8u as=0 ps=0 w=2u l=2u
X195 VDD VDD VDD VDD pfet_03v3 ad=0.84p pd=2.84u as=0 ps=0 w=2u l=2u
X196 a_43010_10448# a_36032_11614# a_42442_13546# VDD pfet_03v3 ad=1.3p pd=5.3u as=0.84p ps=2.84u w=2u l=2u
X197 VSS VSS VSS VSS nfet_03v3 ad=1.3725p pd=5.72u as=0 ps=0 w=2.25u l=2u
X198 a_52635_34067# a_35922_19591# a_52635_48695# VDD pfet_03v3 ad=0.84p pd=2.84u as=0.84p ps=2.84u w=2u l=2u
X199 a_48349_n33224# a_47819_n35156# a_47819_n35156# VDD pfet_03v3 ad=0.84p pd=2.84u as=1.3p ps=5.3u w=2u l=2u
X200 a_42047_n19595# a_31953_n19727# a_41487_n19595# VSS nfet_03v3 ad=1.22p pd=5.22u as=0.8p ps=2.8u w=2u l=2u
X201 a_30682_10448# a_30152_10448# a_30152_10448# VDD pfet_03v3 ad=0.84p pd=2.84u as=1.3p ps=5.3u w=2u l=2u
X202 VDD VDD VDD VDD pfet_03v3 ad=1.3p pd=5.3u as=0 ps=0 w=2u l=2u
X203 VDD VDD VDD VDD pfet_03v3 ad=1.3p pd=5.3u as=0 ps=0 w=2u l=2u
X204 a_32088_n36322# a_30152_n35156# VDD VDD pfet_03v3 ad=0.84p pd=2.84u as=1.3p ps=5.3u w=2u l=2u
X205 VDD VDD VDD VDD pfet_03v3 ad=0.84p pd=2.84u as=0 ps=0 w=2u l=2u
X206 a_105365_n20430# a_71281_n8397# a_104527_n20430# VDD pfet_03v3 ad=0.84p pd=2.84u as=1.3p ps=5.3u w=2u l=2u
X207 VDD VDD VDD VDD pfet_03v3 ad=1.3p pd=5.3u as=0 ps=0 w=2u l=2u
X208 VSS VSS VSS VSS nfet_03v3 ad=1.22p pd=5.22u as=0 ps=0 w=2u l=2u
X209 VDD a_52635_34067# a_52635_48695# VDD pfet_03v3 ad=0.84p pd=2.84u as=1.3p ps=5.3u w=2u l=2u
X210 OUT a_35922_19591# a_52635_49681# VDD pfet_03v3 ad=0.84p pd=2.84u as=0.84p ps=2.84u w=2u l=2u
X211 VDD VDD VDD VDD pfet_03v3 ad=1.3p pd=5.3u as=0 ps=0 w=2u l=2u
X212 VDD VDD VDD VDD pfet_03v3 ad=1.3p pd=5.3u as=0 ps=0 w=2u l=2u
X213 a_52635_34067# a_35922_19591# a_52635_48695# VDD pfet_03v3 ad=1.3p pd=5.3u as=0.84p ps=2.84u w=2u l=2u
X214 VDD VDD VDD VDD pfet_03v3 ad=0.84p pd=2.84u as=0 ps=0 w=2u l=2u
X215 VDD a_31699_20742# a_31699_20742# VDD pfet_03v3 ad=0.84p pd=2.84u as=0.84p ps=2.84u w=2u l=2u
X216 a_33249_48695# a_31699_20742# VDD VDD pfet_03v3 ad=0.84p pd=2.84u as=1.3p ps=5.3u w=2u l=2u
X217 VSS VSS VSS VSS nfet_03v3 ad=1.22p pd=5.22u as=0 ps=0 w=2u l=2u
X218 VSS VSS VSS VSS nfet_03v3 ad=0.8p pd=2.8u as=0 ps=0 w=2u l=2u
X219 OUT a_35922_19591# a_52635_49681# VDD pfet_03v3 ad=1.3p pd=5.3u as=0.84p ps=2.84u w=2u l=2u
X220 a_52635_34067# a_35922_19591# a_52635_48695# VDD pfet_03v3 ad=0.84p pd=2.84u as=0.84p ps=2.84u w=2u l=2u
X221 VDD VDD VDD VDD pfet_03v3 ad=0.84p pd=2.84u as=0 ps=0 w=2u l=2u
X222 a_89563_11614# a_89163_10388# a_81205_n14095# VDD pfet_03v3 ad=0.84p pd=2.84u as=1.3p ps=5.3u w=2u l=2u
X223 a_67422_11614# a_65486_10448# VDD VDD pfet_03v3 ad=0.84p pd=2.84u as=1.3p ps=5.3u w=2u l=2u
X224 VDD VDD VDD VDD pfet_03v3 ad=1.3p pd=5.3u as=0 ps=0 w=2u l=2u
X225 a_44885_n6239# a_31953_n19727# a_44363_n7136# VSS nfet_03v3 ad=0.8p pd=2.8u as=1.22p ps=5.22u w=2u l=2u
X226 a_52635_49681# a_35922_19591# OUT VDD pfet_03v3 ad=0.84p pd=2.84u as=1.3p ps=5.3u w=2u l=2u
X227 VDD VDD VDD VDD pfet_03v3 ad=1.3p pd=5.3u as=0 ps=0 w=2u l=2u
X228 a_31953_n19727# a_31953_n19727# VSS VSS nfet_03v3 ad=1.22p pd=5.22u as=0.8p ps=2.8u w=2u l=2u
X229 a_43010_10448# a_36032_11614# a_42442_11614# VDD pfet_03v3 ad=1.3p pd=5.3u as=0.84p ps=2.84u w=2u l=2u
X230 VSS VSS VSS VSS nfet_03v3 ad=1.22p pd=5.22u as=0 ps=0 w=2u l=2u
X231 VDD VDD VDD VDD pfet_03v3 ad=1.3p pd=5.3u as=0 ps=0 w=2u l=2u
X232 VSS a_89163_n36382# a_89563_n35156# VDD pfet_03v3 ad=1.3p pd=5.3u as=0.84p ps=2.84u w=2u l=2u
X233 VSS VSS VSS VSS nfet_03v3 ad=0.8p pd=2.8u as=0 ps=0 w=2u l=2u
X234 VDD VDD VDD VDD pfet_03v3 ad=1.3p pd=5.3u as=0 ps=0 w=2u l=2u
X235 VDD VDD VDD VDD pfet_03v3 ad=0.84p pd=2.84u as=0 ps=0 w=2u l=2u
X236 a_31953_n19727# a_31953_n19727# VSS VSS nfet_03v3 ad=1.22p pd=5.22u as=0.8p ps=2.8u w=2u l=2u
X237 a_47753_n15110# a_31953_n19727# a_47231_n16904# VSS nfet_03v3 ad=0.8p pd=2.8u as=1.22p ps=5.22u w=2u l=2u
X238 VDD VDD VDD VDD pfet_03v3 ad=0.84p pd=2.84u as=0 ps=0 w=2u l=2u
X239 VDD VDD VDD VDD pfet_03v3 ad=1.3p pd=5.3u as=0 ps=0 w=2u l=2u
X240 VDD VDD VDD VDD pfet_03v3 ad=1.3p pd=5.3u as=0 ps=0 w=2u l=2u
X241 VSS VSS VSS VSS nfet_03v3 ad=0.8p pd=2.8u as=0 ps=0 w=2u l=2u
X242 a_89531_6405# a_83153_11614# VDD VSS nfet_03v3 ad=0.8p pd=2.8u as=1.22p ps=5.22u w=2u l=2u
X243 a_107339_n6055# a_71281_n8397# a_106809_n5150# VDD pfet_03v3 ad=1.3p pd=5.3u as=1.3p ps=5.3u w=2u l=2u
X244 VSS VSS VSS VSS nfet_03v3 ad=1.22p pd=5.22u as=0 ps=0 w=2u l=6u
X245 VDD VDD VDD VDD pfet_03v3 ad=1.3p pd=5.3u as=0 ps=0 w=2u l=2u
X246 VDD VDD VDD VDD pfet_03v3 ad=1.3p pd=5.3u as=0 ps=0 w=2u l=2u
X247 a_52635_34067# a_35502_24538# a_33249_34067# VSS nfet_03v3 ad=1.22p pd=5.22u as=0.8p ps=2.8u w=2u l=2u
X248 VSS a_41891_n29181# a_42413_n27257# VSS nfet_03v3 ad=1.22p pd=5.22u as=0.8p ps=2.8u w=2u l=2u
X249 VDD VDD VDD VDD pfet_03v3 ad=0.84p pd=2.84u as=0 ps=0 w=2u l=2u
X250 VDD VDD VDD VDD pfet_03v3 ad=1.3p pd=5.3u as=0 ps=0 w=2u l=6u
X251 VDD VDD VDD VDD pfet_03v3 ad=1.3p pd=5.3u as=0 ps=0 w=2u l=2u
X252 VDD VDD VDD VDD pfet_03v3 ad=1.3p pd=5.3u as=0 ps=0 w=2u l=2u
X253 VDD VDD VDD VDD pfet_03v3 ad=1.3p pd=5.3u as=0 ps=0 w=2u l=2u
X254 VSS VSS VSS VSS nfet_03v3 ad=1.22p pd=5.22u as=0 ps=0 w=2u l=2u
X255 a_33249_48695# a_33379_34007# a_33249_34067# VDD pfet_03v3 ad=0.84p pd=2.84u as=0.84p ps=2.84u w=2u l=2u
X256 a_89407_n6960# a_71281_n10073# a_88839_n6960# VDD pfet_03v3 ad=1.3p pd=5.3u as=0.84p ps=2.84u w=2u l=2u
X257 VSS VSS VSS VSS nfet_03v3 ad=1.22p pd=5.22u as=0 ps=0 w=2u l=2u
X258 VSS VSS VSS VSS nfet_03v3 ad=1.22p pd=5.22u as=0 ps=0 w=2u l=2u
X259 VDD VDD VDD VDD pfet_03v3 ad=1.3p pd=5.3u as=0 ps=0 w=2u l=2u
X260 a_89009_n27257# a_89163_n36382# a_89563_n33224# VDD pfet_03v3 ad=1.3p pd=5.3u as=0.84p ps=2.84u w=2u l=2u
X261 a_89033_13546# a_89163_10388# a_90969_10448# VDD pfet_03v3 ad=1.3p pd=5.3u as=0.84p ps=2.84u w=2u l=2u
X262 a_31699_20742# a_31699_20742# VDD VDD pfet_03v3 ad=0.84p pd=2.84u as=0.84p ps=2.84u w=2u l=2u
X263 VDD VDD VDD VDD pfet_03v3 ad=0.84p pd=2.84u as=0 ps=0 w=2u l=2u
X264 a_53699_n36322# a_71496_n36382# a_73302_n36322# VDD pfet_03v3 ad=1.3p pd=5.3u as=0.84p ps=2.84u w=2u l=2u
X265 VDD VDD VDD VDD pfet_03v3 ad=0.84p pd=2.84u as=0 ps=0 w=2u l=2u
X266 VSS VSS VSS VSS nfet_03v3 ad=1.22p pd=5.22u as=0 ps=0 w=2u l=2u
X267 VDD VDD VDD VDD pfet_03v3 ad=0.84p pd=2.84u as=0 ps=0 w=2u l=2u
X268 a_100235_n15905# a_71281_n8397# a_99667_n15905# VDD pfet_03v3 ad=0.84p pd=2.84u as=0.84p ps=2.84u w=2u l=2u
X269 VSS VSS VSS VSS nfet_03v3 ad=1.22p pd=5.22u as=0 ps=0 w=2u l=6u
X270 VDD VDD VDD VDD pfet_03v3 ad=0.84p pd=2.84u as=0 ps=0 w=2u l=2u
X271 VDD VDD VDD VDD pfet_03v3 ad=0.84p pd=2.84u as=0 ps=0 w=2u l=2u
X272 a_33249_48695# a_33379_34917# a_33249_35053# VDD pfet_03v3 ad=0.84p pd=2.84u as=0.84p ps=2.84u w=2u l=2u
X273 VDD a_31699_20742# a_33249_48695# VDD pfet_03v3 ad=0.84p pd=2.84u as=1.3p ps=5.3u w=2u l=2u
X274 a_40613_n14213# a_31953_n19727# a_40053_n14213# VSS nfet_03v3 ad=1.22p pd=5.22u as=0.8p ps=2.8u w=2u l=2u
X275 VSS VSS VSS VSS nfet_03v3 ad=0.8p pd=2.8u as=0 ps=0 w=2u l=2u
X276 a_67462_n29181# a_45445_n19595# a_44363_n16007# VSS nfet_03v3 ad=0.8p pd=2.8u as=1.22p ps=5.22u w=2u l=2u
X277 a_31699_20742# a_31699_20742# VDD VDD pfet_03v3 ad=0.84p pd=2.84u as=0.84p ps=2.84u w=2u l=2u
X278 VDD VDD VDD VDD pfet_03v3 ad=0.84p pd=2.84u as=0 ps=0 w=2u l=2u
X279 VDD VDD VDD VDD pfet_03v3 ad=0.84p pd=2.84u as=0 ps=0 w=2u l=2u
X280 a_94537_n9675# a_71281_n10073# a_93969_n9675# VDD pfet_03v3 ad=0.84p pd=2.84u as=0.84p ps=2.84u w=2u l=2u
X281 VDD VDD VDD VDD pfet_03v3 ad=1.3p pd=5.3u as=0 ps=0 w=2u l=2u
X282 a_78344_n36322# a_71366_n35156# a_77776_n36322# VDD pfet_03v3 ad=1.3p pd=5.3u as=0.84p ps=2.84u w=2u l=2u
X283 a_33249_34067# a_33379_34007# a_33249_48695# VDD pfet_03v3 ad=1.3p pd=5.3u as=0.84p ps=2.84u w=2u l=2u
X284 a_52635_34067# a_35922_19591# a_52635_48695# VDD pfet_03v3 ad=1.3p pd=5.3u as=0.84p ps=2.84u w=2u l=2u
X285 VDD VDD VDD VDD pfet_03v3 ad=1.3p pd=5.3u as=0 ps=0 w=2u l=2u
X286 VSS VSS VSS VSS nfet_03v3 ad=1.22p pd=5.22u as=0 ps=0 w=2u l=2u
X287 VDD VDD VDD VDD pfet_03v3 ad=1.3p pd=5.3u as=0 ps=0 w=2u l=2u
X288 VSS VSS VSS VSS nfet_03v3 ad=0.8p pd=2.8u as=0 ps=0 w=2u l=2u
X289 VSS VSS VSS VSS nfet_03v3 ad=1.22p pd=5.22u as=0 ps=0 w=2u l=2u
X290 VDD VDD VDD VDD pfet_03v3 ad=1.3p pd=5.3u as=0 ps=0 w=2u l=2u
X291 VDD VDD VDD VDD pfet_03v3 ad=1.3p pd=5.3u as=0 ps=0 w=2u l=2u
X292 a_39179_n19595# a_31953_n19727# a_38619_n19595# VSS nfet_03v3 ad=1.22p pd=5.22u as=0.8p ps=2.8u w=2u l=2u
X293 VSS VSS VSS VSS nfet_03v3 ad=1.22p pd=5.22u as=0 ps=0 w=2u l=2u
X294 VDD VDD VDD VDD pfet_03v3 ad=0.84p pd=2.84u as=0 ps=0 w=2u l=2u
X295 VSS VSS VSS VSS nfet_03v3 ad=1.22p pd=5.22u as=0 ps=0 w=2u l=2u
X296 VSS VSS VSS VSS nfet_03v3 ad=1.22p pd=5.22u as=0 ps=0 w=2u l=2u
X297 a_60845_n19597# a_50751_n19729# a_60285_n18700# VSS nfet_03v3 ad=1.22p pd=5.22u as=0.8p ps=2.8u w=2u l=2u
X298 VDD VDD VDD VDD pfet_03v3 ad=1.3p pd=5.3u as=0 ps=0 w=2u l=2u
X299 VDD VDD VDD VDD pfet_03v3 ad=0.84p pd=2.84u as=0 ps=0 w=2u l=2u
X300 VDD VDD VDD VDD pfet_03v3 ad=0.84p pd=2.84u as=0 ps=0 w=2u l=2u
X301 VDD VDD VDD VDD pfet_03v3 ad=1.3p pd=5.3u as=0 ps=0 w=2u l=2u
X302 VSS VSS VSS VSS nfet_03v3 ad=1.22p pd=5.22u as=0 ps=0 w=2u l=2u
X303 a_71342_n30339# a_71496_n36382# a_71896_n36322# VDD pfet_03v3 ad=1.3p pd=5.3u as=0.84p ps=2.84u w=2u l=2u
X304 VDD VDD VDD VDD pfet_03v3 ad=1.3p pd=5.3u as=0 ps=0 w=2u l=2u
X305 VSS VSS VSS VSS nfet_03v3 ad=1.22p pd=5.22u as=0 ps=0 w=2u l=2u
X306 VDD VDD VDD VDD pfet_03v3 ad=1.3p pd=5.3u as=0 ps=0 w=2u l=2u
X307 VSS VSS VSS VSS nfet_03v3 ad=1.22p pd=5.22u as=0 ps=0 w=2u l=2u
X308 VSS VSS VSS VSS nfet_03v3 ad=1.22p pd=5.22u as=0 ps=0 w=2u l=2u
X309 a_60285_n19597# a_50751_n19729# a_57977_n19597# VSS nfet_03v3 ad=0.8p pd=2.8u as=1.22p ps=5.22u w=2u l=2u
X310 a_98829_n15905# a_71281_n8397# a_98299_n15905# VDD pfet_03v3 ad=1.3p pd=5.3u as=1.3p ps=5.3u w=2u l=2u
X311 VSS VSS VSS VSS nfet_03v3 ad=1.22p pd=5.22u as=0 ps=0 w=2u l=2u
X312 VSS VSS VSS VSS nfet_03v3 ad=0.8p pd=2.8u as=0 ps=0 w=2u l=2u
X313 VSS VSS VSS VSS nfet_03v3 ad=1.22p pd=5.22u as=0 ps=0 w=2u l=2u
X314 a_61484_4481# a_59558_4481# VSS VSS nfet_03v3 ad=0.8p pd=2.8u as=1.22p ps=5.22u w=2u l=2u
X315 VDD VDD VDD VDD pfet_03v3 ad=0.84p pd=2.84u as=0 ps=0 w=2u l=2u
X316 a_54229_n35156# a_53829_n36382# a_53699_n35156# VDD pfet_03v3 ad=0.84p pd=2.84u as=1.3p ps=5.3u w=2u l=2u
X317 a_82573_n13190# a_71281_n10073# a_81735_n13190# VDD pfet_03v3 ad=0.84p pd=2.84u as=1.3p ps=5.3u w=2u l=2u
X318 VDD VDD VDD VDD pfet_03v3 ad=1.3p pd=5.3u as=0 ps=0 w=2u l=2u
X319 VDD VDD VDD VDD pfet_03v3 ad=1.3p pd=5.3u as=0 ps=0 w=2u l=2u
X320 VDD VDD VDD VDD pfet_03v3 ad=0.84p pd=2.84u as=0 ps=0 w=2u l=2u
X321 VSS VSS VSS VSS nfet_03v3 ad=0.8p pd=2.8u as=0 ps=0 w=2u l=2u
X322 VSS VSS VSS VSS nfet_03v3 ad=1.22p pd=5.22u as=0 ps=0 w=2u l=2u
X323 a_105365_n15905# a_71281_n8397# a_104527_n15905# VDD pfet_03v3 ad=0.84p pd=2.84u as=1.3p ps=5.3u w=2u l=2u
X324 VSS VSS VSS VSS nfet_03v3 ad=1.22p pd=5.22u as=0 ps=0 w=2u l=6u
X325 VSS VSS VSS VSS nfet_03v3 ad=1.22p pd=5.22u as=0 ps=0 w=2u l=2u
X326 VSS a_35502_25545# a_33249_35053# VSS nfet_03v3 ad=0.8p pd=2.8u as=1.22p ps=5.22u w=2u l=2u
X327 VDD VDD VDD VDD pfet_03v3 ad=1.3p pd=5.3u as=0 ps=0 w=2u l=2u
X328 VSS VSS VSS VSS nfet_03v3 ad=0.8p pd=2.8u as=0 ps=0 w=2u l=2u
X329 a_39179_n3548# a_31953_n19727# a_38619_n3548# VSS nfet_03v3 ad=1.22p pd=5.22u as=0.8p ps=2.8u w=2u l=2u
X330 a_94892_n29181# a_83325_n29313# a_96849_n36322# VDD pfet_03v3 ad=1.3p pd=5.3u as=0.84p ps=2.84u w=2u l=2u
X331 VDD VDD VDD VDD pfet_03v3 ad=0.84p pd=2.84u as=0 ps=0 w=2u l=2u
X332 VDD VDD VDD VDD pfet_03v3 ad=1.3p pd=5.3u as=0 ps=0 w=2u l=2u
X333 a_54579_n19597# a_50751_n19729# a_54019_n18700# VSS nfet_03v3 ad=1.22p pd=5.22u as=0.8p ps=2.8u w=2u l=2u
X334 a_32353_n15110# a_31953_n19727# a_31831_n15110# VSS nfet_03v3 ad=0.8p pd=2.8u as=1.22p ps=5.22u w=2u l=2u
X335 VSS VSS VSS VSS nfet_03v3 ad=0.8p pd=2.8u as=0 ps=0 w=2u l=2u
X336 VDD VDD VDD VDD pfet_03v3 ad=0.84p pd=2.84u as=0 ps=0 w=2u l=2u
X337 a_64243_n18700# a_50751_n19729# a_63683_n18700# VSS nfet_03v3 ad=1.22p pd=5.22u as=0.8p ps=2.8u w=2u l=2u
X338 a_54019_n4447# a_50751_n19729# a_53497_n6241# VSS nfet_03v3 ad=0.8p pd=2.8u as=1.22p ps=5.22u w=2u l=2u
X339 VSS a_50751_n19729# a_50751_n19729# VSS nfet_03v3 ad=0.8p pd=2.8u as=1.22p ps=5.22u w=2u l=2u
X340 VSS VSS VSS VSS nfet_03v3 ad=1.22p pd=5.22u as=0 ps=0 w=2u l=2u
X341 a_54229_n33224# a_53829_n36382# a_36032_n36322# VDD pfet_03v3 ad=0.84p pd=2.84u as=1.3p ps=5.3u w=2u l=2u
X342 VSS VSS VSS VSS nfet_03v3 ad=0.8p pd=2.8u as=0 ps=0 w=2u l=2u
X343 a_88271_n2435# a_71281_n10073# a_87433_n2435# VDD pfet_03v3 ad=0.84p pd=2.84u as=1.3p ps=5.3u w=2u l=2u
X344 a_31699_19142# I1U a_30377_18342# VSS nfet_03v3 ad=1.22p pd=5.22u as=1.22p ps=5.22u w=2u l=6u
X345 VSS VSS VSS VSS nfet_03v3 ad=1.22p pd=5.22u as=0 ps=0 w=2u l=2u
X346 a_79151_n29181# a_77225_n29181# VSS VSS nfet_03v3 ad=0.8p pd=2.8u as=1.22p ps=5.22u w=2u l=2u
X347 a_52635_34067# a_35922_19591# a_52635_48695# VDD pfet_03v3 ad=0.84p pd=2.84u as=1.3p ps=5.3u w=2u l=2u
X348 VDD VDD VDD VDD pfet_03v3 ad=1.3p pd=5.3u as=0 ps=0 w=2u l=2u
X349 VSS VSS VSS VSS nfet_03v3 ad=0.8p pd=2.8u as=0 ps=0 w=2u l=2u
X350 a_52635_34067# a_35922_19591# a_52635_48695# VDD pfet_03v3 ad=1.3p pd=5.3u as=0.84p ps=2.84u w=2u l=2u
X351 VSS VSS VSS VSS nfet_03v3 ad=0.8p pd=2.8u as=0 ps=0 w=2u l=2u
X352 VDD VDD VDD VDD pfet_03v3 ad=1.3p pd=5.3u as=0 ps=0 w=2u l=6u