* Extracted by KLayout with GF180MCU LVS runset on : 21/12/2023 15:47

.SUBCKT Filter_TOP VDD VSS IN OUT8 OUT10 OUT12 OUT7 OUT9 OUT11 OUT2 OUT4 OUT6
+ IREF AVDD OUT1 OUT3 OUT5 VOUT ITN IBN VP VN ITP VA VB IBP AVSS
M$1 VDD VDD VDD VDD pfet_03v3 L=2U W=2U AS=1.3P AD=1.3P PS=5.3U PD=5.3U
M$2 VDD VDD VDD VDD pfet_03v3 L=2U W=2U AS=1.3P AD=1.3P PS=5.3U PD=5.3U
M$3 VDD VDD VDD VDD pfet_03v3 L=2U W=2U AS=1.3P AD=0.84P PS=5.3U PD=2.84U
M$4 VDD VDD VDD VDD pfet_03v3 L=2U W=2U AS=0.84P AD=0.84P PS=2.84U PD=2.84U
M$5 VDD VDD VDD VDD pfet_03v3 L=2U W=2U AS=0.84P AD=1.3P PS=2.84U PD=5.3U
M$6 VDD VDD VDD VDD pfet_03v3 L=2U W=2U AS=1.3P AD=1.3P PS=5.3U PD=5.3U
M$7 VDD VDD VDD VDD pfet_03v3 L=2U W=2U AS=1.3P AD=1.3P PS=5.3U PD=5.3U
M$8 VDD VDD VDD VDD pfet_03v3 L=2U W=2U AS=1.3P AD=1.3P PS=5.3U PD=5.3U
M$9 VDD VDD VDD VDD pfet_03v3 L=2U W=2U AS=1.3P AD=1.3P PS=5.3U PD=5.3U
M$10 VDD VDD VDD VDD pfet_03v3 L=2U W=2U AS=1.3P AD=0.84P PS=5.3U PD=2.84U
M$11 VDD VDD VDD VDD pfet_03v3 L=2U W=2U AS=0.84P AD=0.84P PS=2.84U PD=2.84U
M$12 VDD VDD VDD VDD pfet_03v3 L=2U W=2U AS=0.84P AD=1.3P PS=2.84U PD=5.3U
M$13 VDD VDD VDD VDD pfet_03v3 L=2U W=2U AS=1.3P AD=1.3P PS=5.3U PD=5.3U
M$14 VDD VDD VDD VDD pfet_03v3 L=2U W=2U AS=1.3P AD=1.3P PS=5.3U PD=5.3U
M$15 VDD VDD VDD VDD pfet_03v3 L=2U W=2U AS=1.3P AD=1.3P PS=5.3U PD=5.3U
M$16 VDD VDD VDD VDD pfet_03v3 L=2U W=2U AS=1.3P AD=1.3P PS=5.3U PD=5.3U
M$17 VDD VDD VDD VDD pfet_03v3 L=2U W=2U AS=1.3P AD=0.84P PS=5.3U PD=2.84U
M$18 VDD VDD VDD VDD pfet_03v3 L=2U W=2U AS=0.84P AD=0.84P PS=2.84U PD=2.84U
M$19 VDD VDD VDD VDD pfet_03v3 L=2U W=2U AS=0.84P AD=1.3P PS=2.84U PD=5.3U
M$20 VDD VDD VDD VDD pfet_03v3 L=2U W=2U AS=1.3P AD=1.3P PS=5.3U PD=5.3U
M$21 VDD VDD VDD VDD pfet_03v3 L=2U W=2U AS=1.3P AD=1.3P PS=5.3U PD=5.3U
M$22 VDD VDD VDD VDD pfet_03v3 L=2U W=2U AS=1.3P AD=1.3P PS=5.3U PD=5.3U
M$23 \$68 IN \$67 VDD pfet_03v3 L=2U W=2U AS=1.3P AD=1.3P PS=5.3U PD=5.3U
M$24 \$69 IN \$68 VDD pfet_03v3 L=2U W=2U AS=1.3P AD=0.84P PS=5.3U PD=2.84U
M$25 \$70 IN \$69 VDD pfet_03v3 L=2U W=2U AS=0.84P AD=0.84P PS=2.84U PD=2.84U
M$26 \$71 IN \$70 VDD pfet_03v3 L=2U W=2U AS=0.84P AD=1.3P PS=2.84U PD=5.3U
M$27 VDD IN \$71 VDD pfet_03v3 L=2U W=2U AS=1.3P AD=1.3P PS=5.3U PD=5.3U
M$28 VDD VDD VDD VDD pfet_03v3 L=2U W=2U AS=1.3P AD=1.3P PS=5.3U PD=5.3U
M$29 VDD VDD VDD VDD pfet_03v3 L=2U W=2U AS=1.3P AD=1.3P PS=5.3U PD=5.3U
M$30 \$73 IN \$72 VDD pfet_03v3 L=2U W=2U AS=1.3P AD=1.3P PS=5.3U PD=5.3U
M$31 \$74 IN \$73 VDD pfet_03v3 L=2U W=2U AS=1.3P AD=0.84P PS=5.3U PD=2.84U
M$32 \$75 IN \$74 VDD pfet_03v3 L=2U W=2U AS=0.84P AD=0.84P PS=2.84U PD=2.84U
M$33 \$76 IN \$75 VDD pfet_03v3 L=2U W=2U AS=0.84P AD=1.3P PS=2.84U PD=5.3U
M$34 VDD IN \$76 VDD pfet_03v3 L=2U W=2U AS=1.3P AD=1.3P PS=5.3U PD=5.3U
M$35 VDD VDD VDD VDD pfet_03v3 L=2U W=2U AS=1.3P AD=1.3P PS=5.3U PD=5.3U
M$36 VDD VDD VDD VDD pfet_03v3 L=2U W=2U AS=1.3P AD=1.3P PS=5.3U PD=5.3U
M$37 \$78 IN \$77 VDD pfet_03v3 L=2U W=2U AS=1.3P AD=1.3P PS=5.3U PD=5.3U
M$38 \$79 IN \$78 VDD pfet_03v3 L=2U W=2U AS=1.3P AD=0.84P PS=5.3U PD=2.84U
M$39 \$80 IN \$79 VDD pfet_03v3 L=2U W=2U AS=0.84P AD=0.84P PS=2.84U PD=2.84U
M$40 \$81 IN \$80 VDD pfet_03v3 L=2U W=2U AS=0.84P AD=1.3P PS=2.84U PD=5.3U
M$41 VDD IN \$81 VDD pfet_03v3 L=2U W=2U AS=1.3P AD=1.3P PS=5.3U PD=5.3U
M$42 VDD VDD VDD VDD pfet_03v3 L=2U W=2U AS=1.3P AD=1.3P PS=5.3U PD=5.3U
M$43 VDD VDD VDD VDD pfet_03v3 L=2U W=2U AS=1.3P AD=1.3P PS=5.3U PD=5.3U
M$44 \$142 IN VDD VDD pfet_03v3 L=2U W=2U AS=1.3P AD=1.3P PS=5.3U PD=5.3U
M$45 \$143 IN \$142 VDD pfet_03v3 L=2U W=2U AS=1.3P AD=0.84P PS=5.3U PD=2.84U
M$46 \$144 IN \$143 VDD pfet_03v3 L=2U W=2U AS=0.84P AD=0.84P PS=2.84U PD=2.84U
M$47 \$145 IN \$144 VDD pfet_03v3 L=2U W=2U AS=0.84P AD=1.3P PS=2.84U PD=5.3U
M$48 \$146 IN \$145 VDD pfet_03v3 L=2U W=2U AS=1.3P AD=1.3P PS=5.3U PD=5.3U
M$49 VDD VDD VDD VDD pfet_03v3 L=2U W=2U AS=1.3P AD=1.3P PS=5.3U PD=5.3U
M$50 VDD VDD VDD VDD pfet_03v3 L=2U W=2U AS=1.3P AD=1.3P PS=5.3U PD=5.3U
M$51 \$147 IN VDD VDD pfet_03v3 L=2U W=2U AS=1.3P AD=1.3P PS=5.3U PD=5.3U
M$52 \$148 IN \$147 VDD pfet_03v3 L=2U W=2U AS=1.3P AD=0.84P PS=5.3U PD=2.84U
M$53 \$149 IN \$148 VDD pfet_03v3 L=2U W=2U AS=0.84P AD=0.84P PS=2.84U PD=2.84U
M$54 \$150 IN \$149 VDD pfet_03v3 L=2U W=2U AS=0.84P AD=1.3P PS=2.84U PD=5.3U
M$55 \$151 IN \$150 VDD pfet_03v3 L=2U W=2U AS=1.3P AD=1.3P PS=5.3U PD=5.3U
M$56 VDD VDD VDD VDD pfet_03v3 L=2U W=2U AS=1.3P AD=1.3P PS=5.3U PD=5.3U
M$57 VDD VDD VDD VDD pfet_03v3 L=2U W=2U AS=1.3P AD=1.3P PS=5.3U PD=5.3U
M$58 \$152 IN VDD VDD pfet_03v3 L=2U W=2U AS=1.3P AD=1.3P PS=5.3U PD=5.3U
M$59 \$153 IN \$152 VDD pfet_03v3 L=2U W=2U AS=1.3P AD=0.84P PS=5.3U PD=2.84U
M$60 \$154 IN \$153 VDD pfet_03v3 L=2U W=2U AS=0.84P AD=0.84P PS=2.84U PD=2.84U
M$61 \$155 IN \$154 VDD pfet_03v3 L=2U W=2U AS=0.84P AD=1.3P PS=2.84U PD=5.3U
M$62 \$156 IN \$155 VDD pfet_03v3 L=2U W=2U AS=1.3P AD=1.3P PS=5.3U PD=5.3U
M$63 VDD VDD VDD VDD pfet_03v3 L=2U W=2U AS=1.3P AD=1.3P PS=5.3U PD=5.3U
M$64 VDD VDD VDD VDD pfet_03v3 L=2U W=2U AS=1.3P AD=1.3P PS=5.3U PD=5.3U
M$65 \$252 IN \$251 VDD pfet_03v3 L=2U W=2U AS=1.3P AD=1.3P PS=5.3U PD=5.3U
M$66 \$253 IN \$252 VDD pfet_03v3 L=2U W=2U AS=1.3P AD=0.84P PS=5.3U PD=2.84U
M$67 \$254 IN \$253 VDD pfet_03v3 L=2U W=2U AS=0.84P AD=0.84P PS=2.84U PD=2.84U
M$68 \$255 IN \$254 VDD pfet_03v3 L=2U W=2U AS=0.84P AD=1.3P PS=2.84U PD=5.3U
M$69 \$146 IN \$255 VDD pfet_03v3 L=2U W=2U AS=1.3P AD=1.3P PS=5.3U PD=5.3U
M$70 VDD VDD VDD VDD pfet_03v3 L=2U W=2U AS=1.3P AD=1.3P PS=5.3U PD=5.3U
M$71 VDD VDD VDD VDD pfet_03v3 L=2U W=2U AS=1.3P AD=1.3P PS=5.3U PD=5.3U
M$72 \$257 IN \$256 VDD pfet_03v3 L=2U W=2U AS=1.3P AD=1.3P PS=5.3U PD=5.3U
M$73 \$258 IN \$257 VDD pfet_03v3 L=2U W=2U AS=1.3P AD=0.84P PS=5.3U PD=2.84U
M$74 \$259 IN \$258 VDD pfet_03v3 L=2U W=2U AS=0.84P AD=0.84P PS=2.84U PD=2.84U
M$75 \$260 IN \$259 VDD pfet_03v3 L=2U W=2U AS=0.84P AD=1.3P PS=2.84U PD=5.3U
M$76 \$151 IN \$260 VDD pfet_03v3 L=2U W=2U AS=1.3P AD=1.3P PS=5.3U PD=5.3U
M$77 VDD VDD VDD VDD pfet_03v3 L=2U W=2U AS=1.3P AD=1.3P PS=5.3U PD=5.3U
M$78 VDD VDD VDD VDD pfet_03v3 L=2U W=2U AS=1.3P AD=1.3P PS=5.3U PD=5.3U
M$79 \$262 IN \$261 VDD pfet_03v3 L=2U W=2U AS=1.3P AD=1.3P PS=5.3U PD=5.3U
M$80 \$263 IN \$262 VDD pfet_03v3 L=2U W=2U AS=1.3P AD=0.84P PS=5.3U PD=2.84U
M$81 \$264 IN \$263 VDD pfet_03v3 L=2U W=2U AS=0.84P AD=0.84P PS=2.84U PD=2.84U
M$82 \$265 IN \$264 VDD pfet_03v3 L=2U W=2U AS=0.84P AD=1.3P PS=2.84U PD=5.3U
M$83 \$156 IN \$265 VDD pfet_03v3 L=2U W=2U AS=1.3P AD=1.3P PS=5.3U PD=5.3U
M$84 VDD VDD VDD VDD pfet_03v3 L=2U W=2U AS=1.3P AD=1.3P PS=5.3U PD=5.3U
M$85 VDD VDD VDD VDD pfet_03v3 L=2U W=2U AS=1.3P AD=1.3P PS=5.3U PD=5.3U
M$86 \$467 IN \$251 VDD pfet_03v3 L=2U W=2U AS=1.3P AD=1.3P PS=5.3U PD=5.3U
M$87 \$468 IN \$467 VDD pfet_03v3 L=2U W=2U AS=1.3P AD=0.84P PS=5.3U PD=2.84U
M$88 \$469 IN \$468 VDD pfet_03v3 L=2U W=2U AS=0.84P AD=0.84P PS=2.84U PD=2.84U
M$89 \$470 IN \$469 VDD pfet_03v3 L=2U W=2U AS=0.84P AD=1.3P PS=2.84U PD=5.3U
M$90 \$471 IN \$470 VDD pfet_03v3 L=2U W=2U AS=1.3P AD=1.3P PS=5.3U PD=5.3U
M$91 VDD VDD VDD VDD pfet_03v3 L=2U W=2U AS=1.3P AD=1.3P PS=5.3U PD=5.3U
M$92 VDD VDD VDD VDD pfet_03v3 L=2U W=2U AS=1.3P AD=1.3P PS=5.3U PD=5.3U
M$93 \$472 IN \$256 VDD pfet_03v3 L=2U W=2U AS=1.3P AD=1.3P PS=5.3U PD=5.3U
M$94 \$473 IN \$472 VDD pfet_03v3 L=2U W=2U AS=1.3P AD=0.84P PS=5.3U PD=2.84U
M$95 \$474 IN \$473 VDD pfet_03v3 L=2U W=2U AS=0.84P AD=0.84P PS=2.84U PD=2.84U
M$96 \$475 IN \$474 VDD pfet_03v3 L=2U W=2U AS=0.84P AD=1.3P PS=2.84U PD=5.3U
M$97 \$476 IN \$475 VDD pfet_03v3 L=2U W=2U AS=1.3P AD=1.3P PS=5.3U PD=5.3U
M$98 VDD VDD VDD VDD pfet_03v3 L=2U W=2U AS=1.3P AD=1.3P PS=5.3U PD=5.3U
M$99 VDD VDD VDD VDD pfet_03v3 L=2U W=2U AS=1.3P AD=1.3P PS=5.3U PD=5.3U
M$100 \$477 IN \$261 VDD pfet_03v3 L=2U W=2U AS=1.3P AD=1.3P PS=5.3U PD=5.3U
M$101 \$478 IN \$477 VDD pfet_03v3 L=2U W=2U AS=1.3P AD=0.84P PS=5.3U PD=2.84U
M$102 \$479 IN \$478 VDD pfet_03v3 L=2U W=2U AS=0.84P AD=0.84P PS=2.84U PD=2.84U
M$103 \$480 IN \$479 VDD pfet_03v3 L=2U W=2U AS=0.84P AD=1.3P PS=2.84U PD=5.3U
M$104 \$481 IN \$480 VDD pfet_03v3 L=2U W=2U AS=1.3P AD=1.3P PS=5.3U PD=5.3U
M$105 VDD VDD VDD VDD pfet_03v3 L=2U W=2U AS=1.3P AD=1.3P PS=5.3U PD=5.3U
M$106 VDD VDD VDD VDD pfet_03v3 L=2U W=2U AS=1.3P AD=1.3P PS=5.3U PD=5.3U
M$107 \$673 IN \$67 VDD pfet_03v3 L=2U W=2U AS=1.3P AD=1.3P PS=5.3U PD=5.3U
M$108 IN IN VDD VDD pfet_03v3 L=2U W=2U AS=1.3P AD=0.84P PS=5.3U PD=2.84U
M$109 VDD IN IN VDD pfet_03v3 L=2U W=2U AS=0.84P AD=0.84P PS=2.84U PD=2.84U
M$110 IN IN VDD VDD pfet_03v3 L=2U W=2U AS=0.84P AD=1.3P PS=2.84U PD=5.3U
M$111 \$675 IN OUT8 VDD pfet_03v3 L=2U W=2U AS=1.3P AD=1.3P PS=5.3U PD=5.3U
M$112 VDD VDD VDD VDD pfet_03v3 L=2U W=2U AS=1.3P AD=1.3P PS=5.3U PD=5.3U
M$113 VDD VDD VDD VDD pfet_03v3 L=2U W=2U AS=1.3P AD=1.3P PS=5.3U PD=5.3U
M$114 \$676 IN \$72 VDD pfet_03v3 L=2U W=2U AS=1.3P AD=1.3P PS=5.3U PD=5.3U
M$115 IN IN VDD VDD pfet_03v3 L=2U W=2U AS=1.3P AD=0.84P PS=5.3U PD=2.84U
M$116 VDD IN IN VDD pfet_03v3 L=2U W=2U AS=0.84P AD=0.84P PS=2.84U PD=2.84U
M$117 IN IN VDD VDD pfet_03v3 L=2U W=2U AS=0.84P AD=1.3P PS=2.84U PD=5.3U
M$118 \$678 IN OUT10 VDD pfet_03v3 L=2U W=2U AS=1.3P AD=1.3P PS=5.3U PD=5.3U
M$119 VDD VDD VDD VDD pfet_03v3 L=2U W=2U AS=1.3P AD=1.3P PS=5.3U PD=5.3U
M$120 VDD VDD VDD VDD pfet_03v3 L=2U W=2U AS=1.3P AD=1.3P PS=5.3U PD=5.3U
M$121 \$679 IN \$77 VDD pfet_03v3 L=2U W=2U AS=1.3P AD=1.3P PS=5.3U PD=5.3U
M$122 IN IN VDD VDD pfet_03v3 L=2U W=2U AS=1.3P AD=0.84P PS=5.3U PD=2.84U
M$123 VDD IN IN VDD pfet_03v3 L=2U W=2U AS=0.84P AD=0.84P PS=2.84U PD=2.84U
M$124 IN IN VDD VDD pfet_03v3 L=2U W=2U AS=0.84P AD=1.3P PS=2.84U PD=5.3U
M$125 \$681 IN OUT12 VDD pfet_03v3 L=2U W=2U AS=1.3P AD=1.3P PS=5.3U PD=5.3U
M$126 VDD VDD VDD VDD pfet_03v3 L=2U W=2U AS=1.3P AD=1.3P PS=5.3U PD=5.3U
M$127 VDD VDD VDD VDD pfet_03v3 L=2U W=2U AS=1.3P AD=1.3P PS=5.3U PD=5.3U
M$128 \$673 IN \$757 VDD pfet_03v3 L=2U W=2U AS=1.3P AD=1.3P PS=5.3U PD=5.3U
M$129 VDD IN IN VDD pfet_03v3 L=2U W=2U AS=1.3P AD=0.84P PS=5.3U PD=2.84U
M$130 IN IN VDD VDD pfet_03v3 L=2U W=2U AS=0.84P AD=0.84P PS=2.84U PD=2.84U
M$131 VDD IN IN VDD pfet_03v3 L=2U W=2U AS=0.84P AD=1.3P PS=2.84U PD=5.3U
M$132 \$675 IN \$758 VDD pfet_03v3 L=2U W=2U AS=1.3P AD=1.3P PS=5.3U PD=5.3U
M$133 VDD VDD VDD VDD pfet_03v3 L=2U W=2U AS=1.3P AD=1.3P PS=5.3U PD=5.3U
M$134 VDD VDD VDD VDD pfet_03v3 L=2U W=2U AS=1.3P AD=1.3P PS=5.3U PD=5.3U
M$135 \$676 IN \$759 VDD pfet_03v3 L=2U W=2U AS=1.3P AD=1.3P PS=5.3U PD=5.3U
M$136 VDD IN IN VDD pfet_03v3 L=2U W=2U AS=1.3P AD=0.84P PS=5.3U PD=2.84U
M$137 IN IN VDD VDD pfet_03v3 L=2U W=2U AS=0.84P AD=0.84P PS=2.84U PD=2.84U
M$138 VDD IN IN VDD pfet_03v3 L=2U W=2U AS=0.84P AD=1.3P PS=2.84U PD=5.3U
M$139 \$678 IN \$760 VDD pfet_03v3 L=2U W=2U AS=1.3P AD=1.3P PS=5.3U PD=5.3U
M$140 VDD VDD VDD VDD pfet_03v3 L=2U W=2U AS=1.3P AD=1.3P PS=5.3U PD=5.3U
M$141 VDD VDD VDD VDD pfet_03v3 L=2U W=2U AS=1.3P AD=1.3P PS=5.3U PD=5.3U
M$142 \$679 IN \$761 VDD pfet_03v3 L=2U W=2U AS=1.3P AD=1.3P PS=5.3U PD=5.3U
M$143 VDD IN IN VDD pfet_03v3 L=2U W=2U AS=1.3P AD=0.84P PS=5.3U PD=2.84U
M$144 IN IN VDD VDD pfet_03v3 L=2U W=2U AS=0.84P AD=0.84P PS=2.84U PD=2.84U
M$145 VDD IN IN VDD pfet_03v3 L=2U W=2U AS=0.84P AD=1.3P PS=2.84U PD=5.3U
M$146 \$681 IN \$762 VDD pfet_03v3 L=2U W=2U AS=1.3P AD=1.3P PS=5.3U PD=5.3U
M$147 VDD VDD VDD VDD pfet_03v3 L=2U W=2U AS=1.3P AD=1.3P PS=5.3U PD=5.3U
M$148 VDD VDD VDD VDD pfet_03v3 L=2U W=2U AS=1.3P AD=1.3P PS=5.3U PD=5.3U
M$149 \$842 IN \$841 VDD pfet_03v3 L=2U W=2U AS=1.3P AD=1.3P PS=5.3U PD=5.3U
M$150 \$843 IN \$842 VDD pfet_03v3 L=2U W=2U AS=1.3P AD=0.84P PS=5.3U PD=2.84U
M$151 \$844 IN \$843 VDD pfet_03v3 L=2U W=2U AS=0.84P AD=0.84P PS=2.84U PD=2.84U
M$152 \$845 IN \$844 VDD pfet_03v3 L=2U W=2U AS=0.84P AD=1.3P PS=2.84U PD=5.3U
M$153 \$471 IN \$845 VDD pfet_03v3 L=2U W=2U AS=1.3P AD=1.3P PS=5.3U PD=5.3U
M$154 VDD VDD VDD VDD pfet_03v3 L=2U W=2U AS=1.3P AD=1.3P PS=5.3U PD=5.3U
M$155 VDD VDD VDD VDD pfet_03v3 L=2U W=2U AS=1.3P AD=1.3P PS=5.3U PD=5.3U
M$156 \$847 IN \$846 VDD pfet_03v3 L=2U W=2U AS=1.3P AD=1.3P PS=5.3U PD=5.3U
M$157 \$848 IN \$847 VDD pfet_03v3 L=2U W=2U AS=1.3P AD=0.84P PS=5.3U PD=2.84U
M$158 \$849 IN \$848 VDD pfet_03v3 L=2U W=2U AS=0.84P AD=0.84P PS=2.84U PD=2.84U
M$159 \$850 IN \$849 VDD pfet_03v3 L=2U W=2U AS=0.84P AD=1.3P PS=2.84U PD=5.3U
M$160 \$476 IN \$850 VDD pfet_03v3 L=2U W=2U AS=1.3P AD=1.3P PS=5.3U PD=5.3U
M$161 VDD VDD VDD VDD pfet_03v3 L=2U W=2U AS=1.3P AD=1.3P PS=5.3U PD=5.3U
M$162 VDD VDD VDD VDD pfet_03v3 L=2U W=2U AS=1.3P AD=1.3P PS=5.3U PD=5.3U
M$163 \$852 IN \$851 VDD pfet_03v3 L=2U W=2U AS=1.3P AD=1.3P PS=5.3U PD=5.3U
M$164 \$853 IN \$852 VDD pfet_03v3 L=2U W=2U AS=1.3P AD=0.84P PS=5.3U PD=2.84U
M$165 \$854 IN \$853 VDD pfet_03v3 L=2U W=2U AS=0.84P AD=0.84P PS=2.84U PD=2.84U
M$166 \$855 IN \$854 VDD pfet_03v3 L=2U W=2U AS=0.84P AD=1.3P PS=2.84U PD=5.3U
M$167 \$481 IN \$855 VDD pfet_03v3 L=2U W=2U AS=1.3P AD=1.3P PS=5.3U PD=5.3U
M$168 VDD VDD VDD VDD pfet_03v3 L=2U W=2U AS=1.3P AD=1.3P PS=5.3U PD=5.3U
M$169 VDD VDD VDD VDD pfet_03v3 L=2U W=2U AS=1.3P AD=1.3P PS=5.3U PD=5.3U
M$170 \$928 IN \$841 VDD pfet_03v3 L=2U W=2U AS=1.3P AD=1.3P PS=5.3U PD=5.3U
M$171 \$929 IN \$928 VDD pfet_03v3 L=2U W=2U AS=1.3P AD=0.84P PS=5.3U PD=2.84U
M$172 \$930 IN \$929 VDD pfet_03v3 L=2U W=2U AS=0.84P AD=0.84P PS=2.84U PD=2.84U
M$173 \$931 IN \$930 VDD pfet_03v3 L=2U W=2U AS=0.84P AD=1.3P PS=2.84U PD=5.3U
M$174 \$932 IN \$931 VDD pfet_03v3 L=2U W=2U AS=1.3P AD=1.3P PS=5.3U PD=5.3U
M$175 VDD VDD VDD VDD pfet_03v3 L=2U W=2U AS=1.3P AD=1.3P PS=5.3U PD=5.3U
M$176 VDD VDD VDD VDD pfet_03v3 L=2U W=2U AS=1.3P AD=1.3P PS=5.3U PD=5.3U
M$177 \$933 IN \$846 VDD pfet_03v3 L=2U W=2U AS=1.3P AD=1.3P PS=5.3U PD=5.3U
M$178 \$934 IN \$933 VDD pfet_03v3 L=2U W=2U AS=1.3P AD=0.84P PS=5.3U PD=2.84U
M$179 \$935 IN \$934 VDD pfet_03v3 L=2U W=2U AS=0.84P AD=0.84P PS=2.84U PD=2.84U
M$180 \$936 IN \$935 VDD pfet_03v3 L=2U W=2U AS=0.84P AD=1.3P PS=2.84U PD=5.3U
M$181 \$937 IN \$936 VDD pfet_03v3 L=2U W=2U AS=1.3P AD=1.3P PS=5.3U PD=5.3U
M$182 VDD VDD VDD VDD pfet_03v3 L=2U W=2U AS=1.3P AD=1.3P PS=5.3U PD=5.3U
M$183 VDD VDD VDD VDD pfet_03v3 L=2U W=2U AS=1.3P AD=1.3P PS=5.3U PD=5.3U
M$184 \$938 IN \$851 VDD pfet_03v3 L=2U W=2U AS=1.3P AD=1.3P PS=5.3U PD=5.3U
M$185 \$939 IN \$938 VDD pfet_03v3 L=2U W=2U AS=1.3P AD=0.84P PS=5.3U PD=2.84U
M$186 \$940 IN \$939 VDD pfet_03v3 L=2U W=2U AS=0.84P AD=0.84P PS=2.84U PD=2.84U
M$187 \$941 IN \$940 VDD pfet_03v3 L=2U W=2U AS=0.84P AD=1.3P PS=2.84U PD=5.3U
M$188 \$942 IN \$941 VDD pfet_03v3 L=2U W=2U AS=1.3P AD=1.3P PS=5.3U PD=5.3U
M$189 VDD VDD VDD VDD pfet_03v3 L=2U W=2U AS=1.3P AD=1.3P PS=5.3U PD=5.3U
M$190 VDD VDD VDD VDD pfet_03v3 L=2U W=2U AS=1.3P AD=1.3P PS=5.3U PD=5.3U
M$191 \$992 IN OUT7 VDD pfet_03v3 L=2U W=2U AS=1.3P AD=1.3P PS=5.3U PD=5.3U
M$192 \$993 IN \$992 VDD pfet_03v3 L=2U W=2U AS=1.3P AD=0.84P PS=5.3U PD=2.84U
M$193 \$994 IN \$993 VDD pfet_03v3 L=2U W=2U AS=0.84P AD=0.84P PS=2.84U PD=2.84U
M$194 \$995 IN \$994 VDD pfet_03v3 L=2U W=2U AS=0.84P AD=1.3P PS=2.84U PD=5.3U
M$195 \$932 IN \$995 VDD pfet_03v3 L=2U W=2U AS=1.3P AD=1.3P PS=5.3U PD=5.3U
M$196 VDD VDD VDD VDD pfet_03v3 L=2U W=2U AS=1.3P AD=1.3P PS=5.3U PD=5.3U
M$197 VDD VDD VDD VDD pfet_03v3 L=2U W=2U AS=1.3P AD=1.3P PS=5.3U PD=5.3U
M$198 \$997 IN OUT9 VDD pfet_03v3 L=2U W=2U AS=1.3P AD=1.3P PS=5.3U PD=5.3U
M$199 \$998 IN \$997 VDD pfet_03v3 L=2U W=2U AS=1.3P AD=0.84P PS=5.3U PD=2.84U
M$200 \$999 IN \$998 VDD pfet_03v3 L=2U W=2U AS=0.84P AD=0.84P PS=2.84U PD=2.84U
M$201 \$1000 IN \$999 VDD pfet_03v3 L=2U W=2U AS=0.84P AD=1.3P PS=2.84U PD=5.3U
M$202 \$937 IN \$1000 VDD pfet_03v3 L=2U W=2U AS=1.3P AD=1.3P PS=5.3U PD=5.3U
M$203 VDD VDD VDD VDD pfet_03v3 L=2U W=2U AS=1.3P AD=1.3P PS=5.3U PD=5.3U
M$204 VDD VDD VDD VDD pfet_03v3 L=2U W=2U AS=1.3P AD=1.3P PS=5.3U PD=5.3U
M$205 \$1002 IN OUT11 VDD pfet_03v3 L=2U W=2U AS=1.3P AD=1.3P PS=5.3U PD=5.3U
M$206 \$1003 IN \$1002 VDD pfet_03v3 L=2U W=2U AS=1.3P AD=0.84P PS=5.3U PD=2.84U
M$207 \$1004 IN \$1003 VDD pfet_03v3 L=2U W=2U AS=0.84P AD=0.84P PS=2.84U
+ PD=2.84U
M$208 \$1005 IN \$1004 VDD pfet_03v3 L=2U W=2U AS=0.84P AD=1.3P PS=2.84U PD=5.3U
M$209 \$942 IN \$1005 VDD pfet_03v3 L=2U W=2U AS=1.3P AD=1.3P PS=5.3U PD=5.3U
M$210 VDD VDD VDD VDD pfet_03v3 L=2U W=2U AS=1.3P AD=1.3P PS=5.3U PD=5.3U
M$211 VDD VDD VDD VDD pfet_03v3 L=2U W=2U AS=1.3P AD=1.3P PS=5.3U PD=5.3U
M$212 \$1061 IN \$757 VDD pfet_03v3 L=2U W=2U AS=1.3P AD=1.3P PS=5.3U PD=5.3U
M$213 \$1062 IN \$1061 VDD pfet_03v3 L=2U W=2U AS=1.3P AD=0.84P PS=5.3U PD=2.84U
M$214 \$1063 IN \$1062 VDD pfet_03v3 L=2U W=2U AS=0.84P AD=0.84P PS=2.84U
+ PD=2.84U
M$215 \$1064 IN \$1063 VDD pfet_03v3 L=2U W=2U AS=0.84P AD=1.3P PS=2.84U PD=5.3U
M$216 \$758 IN \$1064 VDD pfet_03v3 L=2U W=2U AS=1.3P AD=1.3P PS=5.3U PD=5.3U
M$217 VDD VDD VDD VDD pfet_03v3 L=2U W=2U AS=1.3P AD=1.3P PS=5.3U PD=5.3U
M$218 VDD VDD VDD VDD pfet_03v3 L=2U W=2U AS=1.3P AD=1.3P PS=5.3U PD=5.3U
M$219 \$1065 IN \$759 VDD pfet_03v3 L=2U W=2U AS=1.3P AD=1.3P PS=5.3U PD=5.3U
M$220 \$1066 IN \$1065 VDD pfet_03v3 L=2U W=2U AS=1.3P AD=0.84P PS=5.3U PD=2.84U
M$221 \$1067 IN \$1066 VDD pfet_03v3 L=2U W=2U AS=0.84P AD=0.84P PS=2.84U
+ PD=2.84U
M$222 \$1068 IN \$1067 VDD pfet_03v3 L=2U W=2U AS=0.84P AD=1.3P PS=2.84U PD=5.3U
M$223 \$760 IN \$1068 VDD pfet_03v3 L=2U W=2U AS=1.3P AD=1.3P PS=5.3U PD=5.3U
M$224 VDD VDD VDD VDD pfet_03v3 L=2U W=2U AS=1.3P AD=1.3P PS=5.3U PD=5.3U
M$225 VDD VDD VDD VDD pfet_03v3 L=2U W=2U AS=1.3P AD=1.3P PS=5.3U PD=5.3U
M$226 \$1069 IN \$761 VDD pfet_03v3 L=2U W=2U AS=1.3P AD=1.3P PS=5.3U PD=5.3U
M$227 \$1070 IN \$1069 VDD pfet_03v3 L=2U W=2U AS=1.3P AD=0.84P PS=5.3U PD=2.84U
M$228 \$1071 IN \$1070 VDD pfet_03v3 L=2U W=2U AS=0.84P AD=0.84P PS=2.84U
+ PD=2.84U
M$229 \$1072 IN \$1071 VDD pfet_03v3 L=2U W=2U AS=0.84P AD=1.3P PS=2.84U PD=5.3U
M$230 \$762 IN \$1072 VDD pfet_03v3 L=2U W=2U AS=1.3P AD=1.3P PS=5.3U PD=5.3U
M$231 VDD VDD VDD VDD pfet_03v3 L=2U W=2U AS=1.3P AD=1.3P PS=5.3U PD=5.3U
M$232 VDD VDD VDD VDD pfet_03v3 L=2U W=2U AS=1.3P AD=1.3P PS=5.3U PD=5.3U
M$233 VDD VDD VDD VDD pfet_03v3 L=2U W=2U AS=1.3P AD=1.3P PS=5.3U PD=5.3U
M$234 VDD VDD VDD VDD pfet_03v3 L=2U W=2U AS=1.3P AD=0.84P PS=5.3U PD=2.84U
M$235 VDD VDD VDD VDD pfet_03v3 L=2U W=2U AS=0.84P AD=0.84P PS=2.84U PD=2.84U
M$236 VDD VDD VDD VDD pfet_03v3 L=2U W=2U AS=0.84P AD=1.3P PS=2.84U PD=5.3U
M$237 VDD VDD VDD VDD pfet_03v3 L=2U W=2U AS=1.3P AD=1.3P PS=5.3U PD=5.3U
M$238 VDD VDD VDD VDD pfet_03v3 L=2U W=2U AS=1.3P AD=1.3P PS=5.3U PD=5.3U
M$239 VDD VDD VDD VDD pfet_03v3 L=2U W=2U AS=1.3P AD=1.3P PS=5.3U PD=5.3U
M$240 VDD VDD VDD VDD pfet_03v3 L=2U W=2U AS=1.3P AD=1.3P PS=5.3U PD=5.3U
M$241 VDD VDD VDD VDD pfet_03v3 L=2U W=2U AS=1.3P AD=0.84P PS=5.3U PD=2.84U
M$242 VDD VDD VDD VDD pfet_03v3 L=2U W=2U AS=0.84P AD=0.84P PS=2.84U PD=2.84U
M$243 VDD VDD VDD VDD pfet_03v3 L=2U W=2U AS=0.84P AD=1.3P PS=2.84U PD=5.3U
M$244 VDD VDD VDD VDD pfet_03v3 L=2U W=2U AS=1.3P AD=1.3P PS=5.3U PD=5.3U
M$245 VDD VDD VDD VDD pfet_03v3 L=2U W=2U AS=1.3P AD=1.3P PS=5.3U PD=5.3U
M$246 VDD VDD VDD VDD pfet_03v3 L=2U W=2U AS=1.3P AD=1.3P PS=5.3U PD=5.3U
M$247 VDD VDD VDD VDD pfet_03v3 L=2U W=2U AS=1.3P AD=1.3P PS=5.3U PD=5.3U
M$248 VDD VDD VDD VDD pfet_03v3 L=2U W=2U AS=1.3P AD=0.84P PS=5.3U PD=2.84U
M$249 VDD VDD VDD VDD pfet_03v3 L=2U W=2U AS=0.84P AD=0.84P PS=2.84U PD=2.84U
M$250 VDD VDD VDD VDD pfet_03v3 L=2U W=2U AS=0.84P AD=1.3P PS=2.84U PD=5.3U
M$251 VDD VDD VDD VDD pfet_03v3 L=2U W=2U AS=1.3P AD=1.3P PS=5.3U PD=5.3U
M$252 VDD VDD VDD VDD pfet_03v3 L=2U W=2U AS=1.3P AD=1.3P PS=5.3U PD=5.3U
M$253 VDD VDD VDD VDD pfet_03v3 L=2U W=2U AS=1.3P AD=1.3P PS=5.3U PD=5.3U
M$254 VDD VDD VDD VDD pfet_03v3 L=2U W=2U AS=1.3P AD=1.3P PS=5.3U PD=5.3U
M$255 VDD VDD VDD VDD pfet_03v3 L=2U W=2U AS=1.3P AD=0.84P PS=5.3U PD=2.84U
M$256 VDD VDD VDD VDD pfet_03v3 L=2U W=2U AS=0.84P AD=0.84P PS=2.84U PD=2.84U
M$257 VDD VDD VDD VDD pfet_03v3 L=2U W=2U AS=0.84P AD=1.3P PS=2.84U PD=5.3U
M$258 VDD VDD VDD VDD pfet_03v3 L=2U W=2U AS=1.3P AD=1.3P PS=5.3U PD=5.3U
M$259 VDD VDD VDD VDD pfet_03v3 L=2U W=2U AS=1.3P AD=1.3P PS=5.3U PD=5.3U
M$260 VDD VDD VDD VDD pfet_03v3 L=2U W=2U AS=1.3P AD=1.3P PS=5.3U PD=5.3U
M$261 VDD VDD VDD VDD pfet_03v3 L=2U W=2U AS=1.3P AD=1.3P PS=5.3U PD=5.3U
M$262 VDD VDD VDD VDD pfet_03v3 L=2U W=2U AS=1.3P AD=0.84P PS=5.3U PD=2.84U
M$263 VDD VDD VDD VDD pfet_03v3 L=2U W=2U AS=0.84P AD=0.84P PS=2.84U PD=2.84U
M$264 VDD VDD VDD VDD pfet_03v3 L=2U W=2U AS=0.84P AD=1.3P PS=2.84U PD=5.3U
M$265 VDD VDD VDD VDD pfet_03v3 L=2U W=2U AS=1.3P AD=1.3P PS=5.3U PD=5.3U
M$266 VDD VDD VDD VDD pfet_03v3 L=2U W=2U AS=1.3P AD=1.3P PS=5.3U PD=5.3U
M$267 VDD VDD VDD VDD pfet_03v3 L=2U W=2U AS=1.3P AD=1.3P PS=5.3U PD=5.3U
M$268 VDD VDD VDD VDD pfet_03v3 L=2U W=2U AS=1.3P AD=1.3P PS=5.3U PD=5.3U
M$269 VDD VDD VDD VDD pfet_03v3 L=2U W=2U AS=1.3P AD=0.84P PS=5.3U PD=2.84U
M$270 VDD VDD VDD VDD pfet_03v3 L=2U W=2U AS=0.84P AD=0.84P PS=2.84U PD=2.84U
M$271 VDD VDD VDD VDD pfet_03v3 L=2U W=2U AS=0.84P AD=1.3P PS=2.84U PD=5.3U
M$272 VDD VDD VDD VDD pfet_03v3 L=2U W=2U AS=1.3P AD=1.3P PS=5.3U PD=5.3U
M$273 VDD VDD VDD VDD pfet_03v3 L=2U W=2U AS=1.3P AD=1.3P PS=5.3U PD=5.3U
M$274 VDD VDD VDD VDD pfet_03v3 L=2U W=2U AS=1.3P AD=1.3P PS=5.3U PD=5.3U
M$275 \$4012 IN \$4011 VDD pfet_03v3 L=2U W=2U AS=1.3P AD=1.3P PS=5.3U PD=5.3U
M$276 \$4013 IN \$4012 VDD pfet_03v3 L=2U W=2U AS=1.3P AD=0.84P PS=5.3U PD=2.84U
M$277 \$4014 IN \$4013 VDD pfet_03v3 L=2U W=2U AS=0.84P AD=0.84P PS=2.84U
+ PD=2.84U
M$278 \$4015 IN \$4014 VDD pfet_03v3 L=2U W=2U AS=0.84P AD=1.3P PS=2.84U PD=5.3U
M$279 VDD IN \$4015 VDD pfet_03v3 L=2U W=2U AS=1.3P AD=1.3P PS=5.3U PD=5.3U
M$280 VDD VDD VDD VDD pfet_03v3 L=2U W=2U AS=1.3P AD=1.3P PS=5.3U PD=5.3U
M$281 VDD VDD VDD VDD pfet_03v3 L=2U W=2U AS=1.3P AD=1.3P PS=5.3U PD=5.3U
M$282 \$4017 IN \$4016 VDD pfet_03v3 L=2U W=2U AS=1.3P AD=1.3P PS=5.3U PD=5.3U
M$283 \$4018 IN \$4017 VDD pfet_03v3 L=2U W=2U AS=1.3P AD=0.84P PS=5.3U PD=2.84U
M$284 \$4019 IN \$4018 VDD pfet_03v3 L=2U W=2U AS=0.84P AD=0.84P PS=2.84U
+ PD=2.84U
M$285 \$4020 IN \$4019 VDD pfet_03v3 L=2U W=2U AS=0.84P AD=1.3P PS=2.84U PD=5.3U
M$286 VDD IN \$4020 VDD pfet_03v3 L=2U W=2U AS=1.3P AD=1.3P PS=5.3U PD=5.3U
M$287 VDD VDD VDD VDD pfet_03v3 L=2U W=2U AS=1.3P AD=1.3P PS=5.3U PD=5.3U
M$288 VDD VDD VDD VDD pfet_03v3 L=2U W=2U AS=1.3P AD=1.3P PS=5.3U PD=5.3U
M$289 \$4022 IN \$4021 VDD pfet_03v3 L=2U W=2U AS=1.3P AD=1.3P PS=5.3U PD=5.3U
M$290 \$4023 IN \$4022 VDD pfet_03v3 L=2U W=2U AS=1.3P AD=0.84P PS=5.3U PD=2.84U
M$291 \$4024 IN \$4023 VDD pfet_03v3 L=2U W=2U AS=0.84P AD=0.84P PS=2.84U
+ PD=2.84U
M$292 \$4025 IN \$4024 VDD pfet_03v3 L=2U W=2U AS=0.84P AD=1.3P PS=2.84U PD=5.3U
M$293 VDD IN \$4025 VDD pfet_03v3 L=2U W=2U AS=1.3P AD=1.3P PS=5.3U PD=5.3U
M$294 VDD VDD VDD VDD pfet_03v3 L=2U W=2U AS=1.3P AD=1.3P PS=5.3U PD=5.3U
M$295 VDD VDD VDD VDD pfet_03v3 L=2U W=2U AS=1.3P AD=1.3P PS=5.3U PD=5.3U
M$296 \$4904 IN VDD VDD pfet_03v3 L=2U W=2U AS=1.3P AD=1.3P PS=5.3U PD=5.3U
M$297 \$4905 IN \$4904 VDD pfet_03v3 L=2U W=2U AS=1.3P AD=0.84P PS=5.3U PD=2.84U
M$298 \$4906 IN \$4905 VDD pfet_03v3 L=2U W=2U AS=0.84P AD=0.84P PS=2.84U
+ PD=2.84U
M$299 \$4907 IN \$4906 VDD pfet_03v3 L=2U W=2U AS=0.84P AD=1.3P PS=2.84U PD=5.3U
M$300 \$4908 IN \$4907 VDD pfet_03v3 L=2U W=2U AS=1.3P AD=1.3P PS=5.3U PD=5.3U
M$301 VDD VDD VDD VDD pfet_03v3 L=2U W=2U AS=1.3P AD=1.3P PS=5.3U PD=5.3U
M$302 VDD VDD VDD VDD pfet_03v3 L=2U W=2U AS=1.3P AD=1.3P PS=5.3U PD=5.3U
M$303 \$4909 IN VDD VDD pfet_03v3 L=2U W=2U AS=1.3P AD=1.3P PS=5.3U PD=5.3U
M$304 \$4910 IN \$4909 VDD pfet_03v3 L=2U W=2U AS=1.3P AD=0.84P PS=5.3U PD=2.84U
M$305 \$4911 IN \$4910 VDD pfet_03v3 L=2U W=2U AS=0.84P AD=0.84P PS=2.84U
+ PD=2.84U
M$306 \$4912 IN \$4911 VDD pfet_03v3 L=2U W=2U AS=0.84P AD=1.3P PS=2.84U PD=5.3U
M$307 \$4913 IN \$4912 VDD pfet_03v3 L=2U W=2U AS=1.3P AD=1.3P PS=5.3U PD=5.3U
M$308 VDD VDD VDD VDD pfet_03v3 L=2U W=2U AS=1.3P AD=1.3P PS=5.3U PD=5.3U
M$309 VDD VDD VDD VDD pfet_03v3 L=2U W=2U AS=1.3P AD=1.3P PS=5.3U PD=5.3U
M$310 \$4914 IN VDD VDD pfet_03v3 L=2U W=2U AS=1.3P AD=1.3P PS=5.3U PD=5.3U
M$311 \$4915 IN \$4914 VDD pfet_03v3 L=2U W=2U AS=1.3P AD=0.84P PS=5.3U PD=2.84U
M$312 \$4916 IN \$4915 VDD pfet_03v3 L=2U W=2U AS=0.84P AD=0.84P PS=2.84U
+ PD=2.84U
M$313 \$4917 IN \$4916 VDD pfet_03v3 L=2U W=2U AS=0.84P AD=1.3P PS=2.84U PD=5.3U
M$314 \$4918 IN \$4917 VDD pfet_03v3 L=2U W=2U AS=1.3P AD=1.3P PS=5.3U PD=5.3U
M$315 VDD VDD VDD VDD pfet_03v3 L=2U W=2U AS=1.3P AD=1.3P PS=5.3U PD=5.3U
M$316 VDD VDD VDD VDD pfet_03v3 L=2U W=2U AS=1.3P AD=1.3P PS=5.3U PD=5.3U
M$317 \$5648 IN \$5647 VDD pfet_03v3 L=2U W=2U AS=1.3P AD=1.3P PS=5.3U PD=5.3U
M$318 \$5649 IN \$5648 VDD pfet_03v3 L=2U W=2U AS=1.3P AD=0.84P PS=5.3U PD=2.84U
M$319 \$5650 IN \$5649 VDD pfet_03v3 L=2U W=2U AS=0.84P AD=0.84P PS=2.84U
+ PD=2.84U
M$320 \$5651 IN \$5650 VDD pfet_03v3 L=2U W=2U AS=0.84P AD=1.3P PS=2.84U PD=5.3U
M$321 \$4908 IN \$5651 VDD pfet_03v3 L=2U W=2U AS=1.3P AD=1.3P PS=5.3U PD=5.3U
M$322 VDD VDD VDD VDD pfet_03v3 L=2U W=2U AS=1.3P AD=1.3P PS=5.3U PD=5.3U
M$323 VDD VDD VDD VDD pfet_03v3 L=2U W=2U AS=1.3P AD=1.3P PS=5.3U PD=5.3U
M$324 \$5653 IN \$5652 VDD pfet_03v3 L=2U W=2U AS=1.3P AD=1.3P PS=5.3U PD=5.3U
M$325 \$5654 IN \$5653 VDD pfet_03v3 L=2U W=2U AS=1.3P AD=0.84P PS=5.3U PD=2.84U
M$326 \$5655 IN \$5654 VDD pfet_03v3 L=2U W=2U AS=0.84P AD=0.84P PS=2.84U
+ PD=2.84U
M$327 \$5656 IN \$5655 VDD pfet_03v3 L=2U W=2U AS=0.84P AD=1.3P PS=2.84U PD=5.3U
M$328 \$4913 IN \$5656 VDD pfet_03v3 L=2U W=2U AS=1.3P AD=1.3P PS=5.3U PD=5.3U
M$329 VDD VDD VDD VDD pfet_03v3 L=2U W=2U AS=1.3P AD=1.3P PS=5.3U PD=5.3U
M$330 VDD VDD VDD VDD pfet_03v3 L=2U W=2U AS=1.3P AD=1.3P PS=5.3U PD=5.3U
M$331 \$5658 IN \$5657 VDD pfet_03v3 L=2U W=2U AS=1.3P AD=1.3P PS=5.3U PD=5.3U
M$332 \$5659 IN \$5658 VDD pfet_03v3 L=2U W=2U AS=1.3P AD=0.84P PS=5.3U PD=2.84U
M$333 \$5660 IN \$5659 VDD pfet_03v3 L=2U W=2U AS=0.84P AD=0.84P PS=2.84U
+ PD=2.84U
M$334 \$5661 IN \$5660 VDD pfet_03v3 L=2U W=2U AS=0.84P AD=1.3P PS=2.84U PD=5.3U
M$335 \$4918 IN \$5661 VDD pfet_03v3 L=2U W=2U AS=1.3P AD=1.3P PS=5.3U PD=5.3U
M$336 VDD VDD VDD VDD pfet_03v3 L=2U W=2U AS=1.3P AD=1.3P PS=5.3U PD=5.3U
M$337 VDD VDD VDD VDD pfet_03v3 L=2U W=2U AS=1.3P AD=1.3P PS=5.3U PD=5.3U
M$338 \$6678 IN \$5647 VDD pfet_03v3 L=2U W=2U AS=1.3P AD=1.3P PS=5.3U PD=5.3U
M$339 \$6679 IN \$6678 VDD pfet_03v3 L=2U W=2U AS=1.3P AD=0.84P PS=5.3U PD=2.84U
M$340 \$6680 IN \$6679 VDD pfet_03v3 L=2U W=2U AS=0.84P AD=0.84P PS=2.84U
+ PD=2.84U
M$341 \$6681 IN \$6680 VDD pfet_03v3 L=2U W=2U AS=0.84P AD=1.3P PS=2.84U PD=5.3U
M$342 \$6682 IN \$6681 VDD pfet_03v3 L=2U W=2U AS=1.3P AD=1.3P PS=5.3U PD=5.3U
M$343 VDD VDD VDD VDD pfet_03v3 L=2U W=2U AS=1.3P AD=1.3P PS=5.3U PD=5.3U
M$344 VDD VDD VDD VDD pfet_03v3 L=2U W=2U AS=1.3P AD=1.3P PS=5.3U PD=5.3U
M$345 \$6683 IN \$5652 VDD pfet_03v3 L=2U W=2U AS=1.3P AD=1.3P PS=5.3U PD=5.3U
M$346 \$6684 IN \$6683 VDD pfet_03v3 L=2U W=2U AS=1.3P AD=0.84P PS=5.3U PD=2.84U
M$347 \$6685 IN \$6684 VDD pfet_03v3 L=2U W=2U AS=0.84P AD=0.84P PS=2.84U
+ PD=2.84U
M$348 \$6686 IN \$6685 VDD pfet_03v3 L=2U W=2U AS=0.84P AD=1.3P PS=2.84U PD=5.3U
M$349 \$6687 IN \$6686 VDD pfet_03v3 L=2U W=2U AS=1.3P AD=1.3P PS=5.3U PD=5.3U
M$350 VDD VDD VDD VDD pfet_03v3 L=2U W=2U AS=1.3P AD=1.3P PS=5.3U PD=5.3U
M$351 VDD VDD VDD VDD pfet_03v3 L=2U W=2U AS=1.3P AD=1.3P PS=5.3U PD=5.3U
M$352 \$6688 IN \$5657 VDD pfet_03v3 L=2U W=2U AS=1.3P AD=1.3P PS=5.3U PD=5.3U
M$353 \$6689 IN \$6688 VDD pfet_03v3 L=2U W=2U AS=1.3P AD=0.84P PS=5.3U PD=2.84U
M$354 \$6690 IN \$6689 VDD pfet_03v3 L=2U W=2U AS=0.84P AD=0.84P PS=2.84U
+ PD=2.84U
M$355 \$6691 IN \$6690 VDD pfet_03v3 L=2U W=2U AS=0.84P AD=1.3P PS=2.84U PD=5.3U
M$356 \$6692 IN \$6691 VDD pfet_03v3 L=2U W=2U AS=1.3P AD=1.3P PS=5.3U PD=5.3U
M$357 VDD VDD VDD VDD pfet_03v3 L=2U W=2U AS=1.3P AD=1.3P PS=5.3U PD=5.3U
M$358 VDD VDD VDD VDD pfet_03v3 L=2U W=2U AS=1.3P AD=1.3P PS=5.3U PD=5.3U
M$359 \$7578 IN \$4011 VDD pfet_03v3 L=2U W=2U AS=1.3P AD=1.3P PS=5.3U PD=5.3U
M$360 IN IN VDD VDD pfet_03v3 L=2U W=2U AS=1.3P AD=0.84P PS=5.3U PD=2.84U
M$361 VDD IN IN VDD pfet_03v3 L=2U W=2U AS=0.84P AD=0.84P PS=2.84U PD=2.84U
M$362 IN IN VDD VDD pfet_03v3 L=2U W=2U AS=0.84P AD=1.3P PS=2.84U PD=5.3U
M$363 \$7580 IN OUT2 VDD pfet_03v3 L=2U W=2U AS=1.3P AD=1.3P PS=5.3U PD=5.3U
M$364 VDD VDD VDD VDD pfet_03v3 L=2U W=2U AS=1.3P AD=1.3P PS=5.3U PD=5.3U
M$365 VDD VDD VDD VDD pfet_03v3 L=2U W=2U AS=1.3P AD=1.3P PS=5.3U PD=5.3U
M$366 \$7581 IN \$4016 VDD pfet_03v3 L=2U W=2U AS=1.3P AD=1.3P PS=5.3U PD=5.3U
M$367 IN IN VDD VDD pfet_03v3 L=2U W=2U AS=1.3P AD=0.84P PS=5.3U PD=2.84U
M$368 VDD IN IN VDD pfet_03v3 L=2U W=2U AS=0.84P AD=0.84P PS=2.84U PD=2.84U
M$369 IN IN VDD VDD pfet_03v3 L=2U W=2U AS=0.84P AD=1.3P PS=2.84U PD=5.3U
M$370 \$7583 IN OUT4 VDD pfet_03v3 L=2U W=2U AS=1.3P AD=1.3P PS=5.3U PD=5.3U
M$371 VDD VDD VDD VDD pfet_03v3 L=2U W=2U AS=1.3P AD=1.3P PS=5.3U PD=5.3U
M$372 VDD VDD VDD VDD pfet_03v3 L=2U W=2U AS=1.3P AD=1.3P PS=5.3U PD=5.3U
M$373 \$7584 IN \$4021 VDD pfet_03v3 L=2U W=2U AS=1.3P AD=1.3P PS=5.3U PD=5.3U
M$374 IN IN VDD VDD pfet_03v3 L=2U W=2U AS=1.3P AD=0.84P PS=5.3U PD=2.84U
M$375 VDD IN IN VDD pfet_03v3 L=2U W=2U AS=0.84P AD=0.84P PS=2.84U PD=2.84U
M$376 IN IN VDD VDD pfet_03v3 L=2U W=2U AS=0.84P AD=1.3P PS=2.84U PD=5.3U
M$377 \$7586 IN OUT6 VDD pfet_03v3 L=2U W=2U AS=1.3P AD=1.3P PS=5.3U PD=5.3U
M$378 VDD VDD VDD VDD pfet_03v3 L=2U W=2U AS=1.3P AD=1.3P PS=5.3U PD=5.3U
M$379 AVDD AVDD AVDD AVDD pfet_03v3 L=2U W=2U AS=1.3P AD=1.3P PS=5.3U PD=5.3U
M$380 AVDD AVDD AVDD AVDD pfet_03v3 L=2U W=2U AS=1.3P AD=0.84P PS=5.3U PD=2.84U
M$381 AVDD AVDD AVDD AVDD pfet_03v3 L=2U W=2U AS=0.84P AD=0.84P PS=2.84U
+ PD=2.84U
M$382 AVDD AVDD AVDD AVDD pfet_03v3 L=2U W=2U AS=0.84P AD=0.84P PS=2.84U
+ PD=2.84U
M$383 AVDD AVDD AVDD AVDD pfet_03v3 L=2U W=2U AS=0.84P AD=1.3P PS=2.84U PD=5.3U
M$384 AVDD AVDD AVDD AVDD pfet_03v3 L=2U W=2U AS=1.3P AD=0.84P PS=5.3U PD=2.84U
M$385 AVDD AVDD AVDD AVDD pfet_03v3 L=2U W=2U AS=0.84P AD=0.84P PS=2.84U
+ PD=2.84U
M$386 AVDD AVDD AVDD AVDD pfet_03v3 L=2U W=2U AS=0.84P AD=1.3P PS=2.84U PD=5.3U
M$387 AVDD AVDD AVDD AVDD pfet_03v3 L=2U W=2U AS=1.3P AD=0.84P PS=5.3U PD=2.84U
M$388 AVDD AVDD AVDD AVDD pfet_03v3 L=2U W=2U AS=0.84P AD=0.84P PS=2.84U
+ PD=2.84U