* Extracted by KLayout with GF180MCU LVS runset on : 29/12/2023 23:22

.SUBCKT Filter_TOP VDD A2 B2 CMOUTP CMOUTN ISBCS A1 B1 AVSS ISBCS2 IREF AVDD
+ VOUT VP VN VSS
M$1 VDD VDD VDD VDD pfet_03v3 L=2U W=2U AS=1.3P AD=0.84P PS=5.3U PD=2.84U
M$2 VDD VDD VDD VDD pfet_03v3 L=2U W=2U AS=0.84P AD=1.3P PS=2.84U PD=5.3U
M$3 VDD VDD VDD VDD pfet_03v3 L=2U W=2U AS=1.3P AD=0.84P PS=5.3U PD=2.84U
M$4 VDD VDD VDD VDD pfet_03v3 L=2U W=2U AS=0.84P AD=1.3P PS=2.84U PD=5.3U
M$5 VDD VDD VDD VDD pfet_03v3 L=2U W=2U AS=1.3P AD=0.84P PS=5.3U PD=2.84U
M$6 VDD VDD VDD VDD pfet_03v3 L=2U W=2U AS=0.84P AD=1.3P PS=2.84U PD=5.3U
M$7 VDD VDD VDD VDD pfet_03v3 L=2U W=2U AS=1.3P AD=0.84P PS=5.3U PD=2.84U
M$8 VDD VDD VDD VDD pfet_03v3 L=2U W=2U AS=0.84P AD=1.3P PS=2.84U PD=5.3U
M$9 VDD VDD VDD VDD pfet_03v3 L=2U W=2U AS=1.3P AD=0.84P PS=5.3U PD=2.84U
M$10 VDD VDD VDD VDD pfet_03v3 L=2U W=2U AS=0.84P AD=1.3P PS=2.84U PD=5.3U
M$11 VDD VDD VDD VDD pfet_03v3 L=2U W=2U AS=1.3P AD=0.84P PS=5.3U PD=2.84U
M$12 VDD VDD VDD VDD pfet_03v3 L=2U W=2U AS=0.84P AD=1.3P PS=2.84U PD=5.3U
M$13 VDD VDD VDD VDD pfet_03v3 L=2U W=2U AS=1.3P AD=0.84P PS=5.3U PD=2.84U
M$14 VDD VDD VDD VDD pfet_03v3 L=2U W=2U AS=0.84P AD=1.3P PS=2.84U PD=5.3U
M$15 VDD VDD VDD VDD pfet_03v3 L=2U W=2U AS=1.3P AD=0.84P PS=5.3U PD=2.84U
M$16 VDD VDD VDD VDD pfet_03v3 L=2U W=2U AS=0.84P AD=1.3P PS=2.84U PD=5.3U
M$17 VDD VDD VDD VDD pfet_03v3 L=2U W=2U AS=1.3P AD=0.84P PS=5.3U PD=2.84U
M$18 VDD VDD VDD VDD pfet_03v3 L=2U W=2U AS=0.84P AD=1.3P PS=2.84U PD=5.3U
M$19 VDD VDD VDD VDD pfet_03v3 L=2U W=2U AS=1.3P AD=0.84P PS=5.3U PD=2.84U
M$20 VDD VDD VDD VDD pfet_03v3 L=2U W=2U AS=0.84P AD=1.3P PS=2.84U PD=5.3U
M$21 VDD VDD VDD VDD pfet_03v3 L=2U W=2U AS=1.3P AD=0.84P PS=5.3U PD=2.84U
M$22 VDD VDD VDD VDD pfet_03v3 L=2U W=2U AS=0.84P AD=1.3P PS=2.84U PD=5.3U
M$23 VDD VDD VDD VDD pfet_03v3 L=2U W=2U AS=1.3P AD=0.84P PS=5.3U PD=2.84U
M$24 VDD VDD VDD VDD pfet_03v3 L=2U W=2U AS=0.84P AD=1.3P PS=2.84U PD=5.3U
M$25 VDD VDD VDD VDD pfet_03v3 L=2U W=2U AS=1.3P AD=0.84P PS=5.3U PD=2.84U
M$26 VDD VDD VDD VDD pfet_03v3 L=2U W=2U AS=0.84P AD=1.3P PS=2.84U PD=5.3U
M$27 VDD VDD VDD VDD pfet_03v3 L=2U W=2U AS=1.3P AD=0.84P PS=5.3U PD=2.84U
M$28 VDD VDD VDD VDD pfet_03v3 L=2U W=2U AS=0.84P AD=1.3P PS=2.84U PD=5.3U
M$29 VDD VDD VDD VDD pfet_03v3 L=2U W=2U AS=1.3P AD=0.84P PS=5.3U PD=2.84U
M$30 VDD VDD VDD VDD pfet_03v3 L=2U W=2U AS=0.84P AD=1.3P PS=2.84U PD=5.3U
M$31 VDD VDD VDD VDD pfet_03v3 L=2U W=2U AS=1.3P AD=0.84P PS=5.3U PD=2.84U
M$32 VDD VDD VDD VDD pfet_03v3 L=2U W=2U AS=0.84P AD=1.3P PS=2.84U PD=5.3U
M$33 VDD VDD VDD VDD pfet_03v3 L=2U W=2U AS=1.3P AD=0.84P PS=5.3U PD=2.84U
M$34 VDD VDD VDD VDD pfet_03v3 L=2U W=2U AS=0.84P AD=1.3P PS=2.84U PD=5.3U
M$35 VDD VDD VDD VDD pfet_03v3 L=2U W=2U AS=1.3P AD=0.84P PS=5.3U PD=2.84U
M$36 VDD VDD VDD VDD pfet_03v3 L=2U W=2U AS=0.84P AD=1.3P PS=2.84U PD=5.3U
M$37 VDD VDD VDD VDD pfet_03v3 L=2U W=2U AS=1.3P AD=0.84P PS=5.3U PD=2.84U
M$38 VDD VDD VDD VDD pfet_03v3 L=2U W=2U AS=0.84P AD=1.3P PS=2.84U PD=5.3U
M$39 VDD VDD VDD VDD pfet_03v3 L=2U W=2U AS=1.3P AD=0.84P PS=5.3U PD=2.84U
M$40 VDD VDD VDD VDD pfet_03v3 L=2U W=2U AS=0.84P AD=1.3P PS=2.84U PD=5.3U
M$41 VDD VDD VDD VDD pfet_03v3 L=2U W=2U AS=1.3P AD=0.84P PS=5.3U PD=2.84U
M$42 VDD VDD VDD VDD pfet_03v3 L=2U W=2U AS=0.84P AD=1.3P PS=2.84U PD=5.3U
M$43 VDD VDD VDD VDD pfet_03v3 L=2U W=2U AS=1.3P AD=0.84P PS=5.3U PD=2.84U
M$44 VDD VDD VDD VDD pfet_03v3 L=2U W=2U AS=0.84P AD=1.3P PS=2.84U PD=5.3U
M$45 VDD VDD VDD VDD pfet_03v3 L=2U W=2U AS=1.3P AD=0.84P PS=5.3U PD=2.84U
M$46 VDD VDD VDD VDD pfet_03v3 L=2U W=2U AS=0.84P AD=1.3P PS=2.84U PD=5.3U
M$47 VDD VDD VDD VDD pfet_03v3 L=2U W=2U AS=1.3P AD=0.84P PS=5.3U PD=2.84U
M$48 VDD VDD VDD VDD pfet_03v3 L=2U W=2U AS=0.84P AD=1.3P PS=2.84U PD=5.3U
M$49 VDD VDD VDD VDD pfet_03v3 L=2U W=2U AS=1.3P AD=0.84P PS=5.3U PD=2.84U
M$50 VDD VDD VDD VDD pfet_03v3 L=2U W=2U AS=0.84P AD=1.3P PS=2.84U PD=5.3U
M$51 VDD VDD VDD VDD pfet_03v3 L=2U W=2U AS=1.3P AD=0.84P PS=5.3U PD=2.84U
M$52 VDD VDD VDD VDD pfet_03v3 L=2U W=2U AS=0.84P AD=1.3P PS=2.84U PD=5.3U
M$53 VDD VDD VDD VDD pfet_03v3 L=2U W=2U AS=1.3P AD=0.84P PS=5.3U PD=2.84U
M$54 VDD VDD VDD VDD pfet_03v3 L=2U W=2U AS=0.84P AD=1.3P PS=2.84U PD=5.3U
M$55 VDD VDD VDD VDD pfet_03v3 L=2U W=2U AS=1.3P AD=0.84P PS=5.3U PD=2.84U
M$56 VDD VDD VDD VDD pfet_03v3 L=2U W=2U AS=0.84P AD=1.3P PS=2.84U PD=5.3U
M$57 VDD VDD VDD VDD pfet_03v3 L=2U W=2U AS=1.3P AD=0.84P PS=5.3U PD=2.84U
M$58 VDD VDD VDD VDD pfet_03v3 L=2U W=2U AS=0.84P AD=1.3P PS=2.84U PD=5.3U
M$59 VDD VDD VDD VDD pfet_03v3 L=2U W=2U AS=1.3P AD=0.84P PS=5.3U PD=2.84U
M$60 VDD VDD VDD VDD pfet_03v3 L=2U W=2U AS=0.84P AD=1.3P PS=2.84U PD=5.3U
M$61 VDD VDD VDD VDD pfet_03v3 L=2U W=2U AS=1.3P AD=0.84P PS=5.3U PD=2.84U
M$62 VDD VDD VDD VDD pfet_03v3 L=2U W=2U AS=0.84P AD=1.3P PS=2.84U PD=5.3U
M$63 VDD VDD VDD VDD pfet_03v3 L=2U W=2U AS=1.3P AD=0.84P PS=5.3U PD=2.84U
M$64 VDD VDD VDD VDD pfet_03v3 L=2U W=2U AS=0.84P AD=1.3P PS=2.84U PD=5.3U
M$65 VDD VDD VDD VDD pfet_03v3 L=2U W=2U AS=1.3P AD=0.84P PS=5.3U PD=2.84U
M$66 VDD VDD VDD VDD pfet_03v3 L=2U W=2U AS=0.84P AD=1.3P PS=2.84U PD=5.3U
M$67 VDD VDD VDD VDD pfet_03v3 L=2U W=2U AS=1.3P AD=0.84P PS=5.3U PD=2.84U
M$68 VDD VDD VDD VDD pfet_03v3 L=2U W=2U AS=0.84P AD=1.3P PS=2.84U PD=5.3U
M$69 VDD VDD VDD VDD pfet_03v3 L=2U W=2U AS=1.3P AD=0.84P PS=5.3U PD=2.84U
M$70 VDD VDD VDD VDD pfet_03v3 L=2U W=2U AS=0.84P AD=1.3P PS=2.84U PD=5.3U
M$71 VDD VDD VDD VDD pfet_03v3 L=2U W=2U AS=1.3P AD=0.84P PS=5.3U PD=2.84U
M$72 VDD VDD VDD VDD pfet_03v3 L=2U W=2U AS=0.84P AD=1.3P PS=2.84U PD=5.3U
M$73 VDD VDD VDD VDD pfet_03v3 L=2U W=2U AS=1.3P AD=0.84P PS=5.3U PD=2.84U
M$74 VDD VDD VDD VDD pfet_03v3 L=2U W=2U AS=0.84P AD=1.3P PS=2.84U PD=5.3U
M$75 VDD VDD VDD VDD pfet_03v3 L=2U W=2U AS=1.3P AD=0.84P PS=5.3U PD=2.84U
M$76 VDD VDD VDD VDD pfet_03v3 L=2U W=2U AS=0.84P AD=1.3P PS=2.84U PD=5.3U
M$77 VDD VDD VDD VDD pfet_03v3 L=2U W=2U AS=1.3P AD=0.84P PS=5.3U PD=2.84U
M$78 VDD VDD VDD VDD pfet_03v3 L=2U W=2U AS=0.84P AD=1.3P PS=2.84U PD=5.3U
M$79 VDD VDD VDD VDD pfet_03v3 L=2U W=2U AS=1.3P AD=0.84P PS=5.3U PD=2.84U
M$80 VDD VDD VDD VDD pfet_03v3 L=2U W=2U AS=0.84P AD=1.3P PS=2.84U PD=5.3U
M$81 VDD VDD VDD VDD pfet_03v3 L=2U W=2U AS=1.3P AD=0.84P PS=5.3U PD=2.84U
M$82 VDD VDD VDD VDD pfet_03v3 L=2U W=2U AS=0.84P AD=1.3P PS=2.84U PD=5.3U
M$83 VDD VDD VDD VDD pfet_03v3 L=2U W=2U AS=1.3P AD=0.84P PS=5.3U PD=2.84U
M$84 VDD VDD VDD VDD pfet_03v3 L=2U W=2U AS=0.84P AD=1.3P PS=2.84U PD=5.3U
M$85 VDD VDD VDD VDD pfet_03v3 L=2U W=2U AS=1.3P AD=0.84P PS=5.3U PD=2.84U
M$86 VDD VDD VDD VDD pfet_03v3 L=2U W=2U AS=0.84P AD=1.3P PS=2.84U PD=5.3U
M$87 VDD VDD VDD VDD pfet_03v3 L=2U W=2U AS=1.3P AD=0.84P PS=5.3U PD=2.84U
M$88 VDD VDD VDD VDD pfet_03v3 L=2U W=2U AS=0.84P AD=1.3P PS=2.84U PD=5.3U
M$89 VDD VDD VDD VDD pfet_03v3 L=2U W=2U AS=1.3P AD=0.84P PS=5.3U PD=2.84U
M$90 VDD VDD VDD VDD pfet_03v3 L=2U W=2U AS=0.84P AD=1.3P PS=2.84U PD=5.3U
M$91 VDD VDD VDD VDD pfet_03v3 L=2U W=2U AS=1.3P AD=0.84P PS=5.3U PD=2.84U
M$92 VDD VDD VDD VDD pfet_03v3 L=2U W=2U AS=0.84P AD=1.3P PS=2.84U PD=5.3U
M$93 VDD VDD VDD VDD pfet_03v3 L=2U W=2U AS=1.3P AD=0.84P PS=5.3U PD=2.84U
M$94 VDD VDD VDD VDD pfet_03v3 L=2U W=2U AS=0.84P AD=1.3P PS=2.84U PD=5.3U
M$95 VDD VDD VDD VDD pfet_03v3 L=2U W=2U AS=1.3P AD=0.84P PS=5.3U PD=2.84U
M$96 VDD VDD VDD VDD pfet_03v3 L=2U W=2U AS=0.84P AD=1.3P PS=2.84U PD=5.3U
M$97 VDD VDD VDD VDD pfet_03v3 L=2U W=2U AS=1.3P AD=0.84P PS=5.3U PD=2.84U
M$98 VDD VDD VDD VDD pfet_03v3 L=2U W=2U AS=0.84P AD=1.3P PS=2.84U PD=5.3U
M$99 VDD VDD VDD VDD pfet_03v3 L=2U W=2U AS=1.3P AD=0.84P PS=5.3U PD=2.84U
M$100 VDD VDD VDD VDD pfet_03v3 L=2U W=2U AS=0.84P AD=1.3P PS=2.84U PD=5.3U
M$101 VDD VDD VDD VDD pfet_03v3 L=2U W=2U AS=1.3P AD=0.84P PS=5.3U PD=2.84U
M$102 VDD VDD VDD VDD pfet_03v3 L=2U W=2U AS=0.84P AD=1.3P PS=2.84U PD=5.3U
M$103 VDD VDD VDD VDD pfet_03v3 L=2U W=2U AS=1.3P AD=0.84P PS=5.3U PD=2.84U
M$104 VDD VDD VDD VDD pfet_03v3 L=2U W=2U AS=0.84P AD=1.3P PS=2.84U PD=5.3U
M$105 VDD VDD VDD VDD pfet_03v3 L=2U W=2U AS=1.3P AD=0.84P PS=5.3U PD=2.84U
M$106 VDD VDD VDD VDD pfet_03v3 L=2U W=2U AS=0.84P AD=1.3P PS=2.84U PD=5.3U
M$107 VDD VDD VDD VDD pfet_03v3 L=2U W=2U AS=1.3P AD=0.84P PS=5.3U PD=2.84U
M$108 VDD VDD VDD VDD pfet_03v3 L=2U W=2U AS=0.84P AD=1.3P PS=2.84U PD=5.3U
M$109 VDD VDD VDD VDD pfet_03v3 L=2U W=2U AS=1.3P AD=0.84P PS=5.3U PD=2.84U
M$110 VDD VDD VDD VDD pfet_03v3 L=2U W=2U AS=0.84P AD=1.3P PS=2.84U PD=5.3U
M$111 VDD VDD VDD VDD pfet_03v3 L=2U W=2U AS=1.3P AD=0.84P PS=5.3U PD=2.84U
M$112 VDD VDD VDD VDD pfet_03v3 L=2U W=2U AS=0.84P AD=1.3P PS=2.84U PD=5.3U
M$113 VDD VDD VDD VDD pfet_03v3 L=2U W=2U AS=1.3P AD=0.84P PS=5.3U PD=2.84U
M$114 VDD VDD VDD VDD pfet_03v3 L=2U W=2U AS=0.84P AD=1.3P PS=2.84U PD=5.3U
M$115 VDD VDD VDD VDD pfet_03v3 L=2U W=2U AS=1.3P AD=0.84P PS=5.3U PD=2.84U
M$116 VDD VDD VDD VDD pfet_03v3 L=2U W=2U AS=0.84P AD=1.3P PS=2.84U PD=5.3U
M$117 VDD VDD VDD VDD pfet_03v3 L=2U W=2U AS=1.3P AD=0.84P PS=5.3U PD=2.84U
M$118 VDD VDD VDD VDD pfet_03v3 L=2U W=2U AS=0.84P AD=1.3P PS=2.84U PD=5.3U
M$119 VDD VDD VDD VDD pfet_03v3 L=2U W=2U AS=1.3P AD=0.84P PS=5.3U PD=2.84U
M$120 VDD VDD VDD VDD pfet_03v3 L=2U W=2U AS=0.84P AD=1.3P PS=2.84U PD=5.3U
M$121 VDD VDD VDD VDD pfet_03v3 L=2U W=2U AS=1.3P AD=0.84P PS=5.3U PD=2.84U
M$122 VDD VDD VDD VDD pfet_03v3 L=2U W=2U AS=0.84P AD=1.3P PS=2.84U PD=5.3U
M$123 \$136 \$173 \$917 VDD pfet_03v3 L=2U W=2U AS=1.3P AD=0.84P PS=5.3U
+ PD=2.84U
M$124 VDD \$173 \$136 VDD pfet_03v3 L=2U W=2U AS=0.84P AD=1.3P PS=2.84U PD=5.3U
M$125 \$137 \$173 VDD VDD pfet_03v3 L=2U W=2U AS=1.3P AD=0.84P PS=5.3U PD=2.84U
M$126 \$173 \$173 \$137 VDD pfet_03v3 L=2U W=2U AS=0.84P AD=1.3P PS=2.84U
+ PD=5.3U
M$127 VDD VDD VDD VDD pfet_03v3 L=2U W=2U AS=1.3P AD=0.84P PS=5.3U PD=2.84U
M$128 VDD VDD VDD VDD pfet_03v3 L=2U W=2U AS=0.84P AD=1.3P PS=2.84U PD=5.3U
M$129 VDD VDD VDD VDD pfet_03v3 L=2U W=2U AS=1.3P AD=0.84P PS=5.3U PD=2.84U
M$130 VDD VDD VDD VDD pfet_03v3 L=2U W=2U AS=0.84P AD=1.3P PS=2.84U PD=5.3U
M$131 \$138 \$25 \$1 VDD pfet_03v3 L=2U W=2U AS=1.3P AD=0.84P PS=5.3U PD=2.84U
M$132 \$139 \$25 \$138 VDD pfet_03v3 L=2U W=2U AS=0.84P AD=1.3P PS=2.84U PD=5.3U
M$133 \$140 \$25 \$116 VDD pfet_03v3 L=2U W=2U AS=1.3P AD=0.84P PS=5.3U PD=2.84U
M$134 A2 \$25 \$140 VDD pfet_03v3 L=2U W=2U AS=0.84P AD=1.3P PS=2.84U PD=5.3U
M$135 VDD VDD VDD VDD pfet_03v3 L=2U W=2U AS=1.3P AD=0.84P PS=5.3U PD=2.84U
M$136 VDD VDD VDD VDD pfet_03v3 L=2U W=2U AS=0.84P AD=1.3P PS=2.84U PD=5.3U
M$137 VDD VDD VDD VDD pfet_03v3 L=2U W=2U AS=1.3P AD=0.84P PS=5.3U PD=2.84U
M$138 VDD VDD VDD VDD pfet_03v3 L=2U W=2U AS=0.84P AD=1.3P PS=2.84U PD=5.3U
M$139 \$142 \$174 \$25 VDD pfet_03v3 L=2U W=2U AS=1.3P AD=0.84P PS=5.3U PD=2.84U
M$140 \$30 \$174 \$142 VDD pfet_03v3 L=2U W=2U AS=0.84P AD=1.3P PS=2.84U PD=5.3U
M$141 \$143 \$259 \$30 VDD pfet_03v3 L=2U W=2U AS=1.3P AD=0.84P PS=5.3U PD=2.84U
M$142 \$258 \$259 \$143 VDD pfet_03v3 L=2U W=2U AS=0.84P AD=1.3P PS=2.84U
+ PD=5.3U
M$143 VDD VDD VDD VDD pfet_03v3 L=2U W=2U AS=1.3P AD=0.84P PS=5.3U PD=2.84U
M$144 VDD VDD VDD VDD pfet_03v3 L=2U W=2U AS=0.84P AD=1.3P PS=2.84U PD=5.3U
M$145 VDD VDD VDD VDD pfet_03v3 L=2U W=2U AS=1.3P AD=0.84P PS=5.3U PD=2.84U
M$146 VDD VDD VDD VDD pfet_03v3 L=2U W=2U AS=0.84P AD=1.3P PS=2.84U PD=5.3U
M$147 \$144 \$175 \$919 VDD pfet_03v3 L=2U W=2U AS=1.3P AD=0.84P PS=5.3U
+ PD=2.84U
M$148 VDD \$175 \$144 VDD pfet_03v3 L=2U W=2U AS=0.84P AD=1.3P PS=2.84U PD=5.3U
M$149 \$145 \$175 VDD VDD pfet_03v3 L=2U W=2U AS=1.3P AD=0.84P PS=5.3U PD=2.84U
M$150 \$175 \$175 \$145 VDD pfet_03v3 L=2U W=2U AS=0.84P AD=1.3P PS=2.84U
+ PD=5.3U
M$151 VDD VDD VDD VDD pfet_03v3 L=2U W=2U AS=1.3P AD=0.84P PS=5.3U PD=2.84U
M$152 VDD VDD VDD VDD pfet_03v3 L=2U W=2U AS=0.84P AD=1.3P PS=2.84U PD=5.3U
M$153 VDD VDD VDD VDD pfet_03v3 L=2U W=2U AS=1.3P AD=0.84P PS=5.3U PD=2.84U
M$154 VDD VDD VDD VDD pfet_03v3 L=2U W=2U AS=0.84P AD=1.3P PS=2.84U PD=5.3U
M$155 \$146 \$26 \$2 VDD pfet_03v3 L=2U W=2U AS=1.3P AD=0.84P PS=5.3U PD=2.84U
M$156 \$147 \$26 \$146 VDD pfet_03v3 L=2U W=2U AS=0.84P AD=1.3P PS=2.84U PD=5.3U
M$157 \$148 \$26 \$117 VDD pfet_03v3 L=2U W=2U AS=1.3P AD=0.84P PS=5.3U PD=2.84U
M$158 \$1 \$26 \$148 VDD pfet_03v3 L=2U W=2U AS=0.84P AD=1.3P PS=2.84U PD=5.3U
M$159 VDD VDD VDD VDD pfet_03v3 L=2U W=2U AS=1.3P AD=0.84P PS=5.3U PD=2.84U
M$160 VDD VDD VDD VDD pfet_03v3 L=2U W=2U AS=0.84P AD=1.3P PS=2.84U PD=5.3U
M$161 VDD VDD VDD VDD pfet_03v3 L=2U W=2U AS=1.3P AD=0.84P PS=5.3U PD=2.84U
M$162 VDD VDD VDD VDD pfet_03v3 L=2U W=2U AS=0.84P AD=1.3P PS=2.84U PD=5.3U
M$163 \$149 \$176 \$26 VDD pfet_03v3 L=2U W=2U AS=1.3P AD=0.84P PS=5.3U PD=2.84U
M$164 \$31 \$176 \$149 VDD pfet_03v3 L=2U W=2U AS=0.84P AD=1.3P PS=2.84U PD=5.3U
M$165 \$150 \$261 \$31 VDD pfet_03v3 L=2U W=2U AS=1.3P AD=0.84P PS=5.3U PD=2.84U
M$166 \$260 \$261 \$150 VDD pfet_03v3 L=2U W=2U AS=0.84P AD=1.3P PS=2.84U
+ PD=5.3U
M$167 VDD VDD VDD VDD pfet_03v3 L=2U W=2U AS=1.3P AD=0.84P PS=5.3U PD=2.84U
M$168 VDD VDD VDD VDD pfet_03v3 L=2U W=2U AS=0.84P AD=1.3P PS=2.84U PD=5.3U
M$169 VDD VDD VDD VDD pfet_03v3 L=2U W=2U AS=1.3P AD=0.84P PS=5.3U PD=2.84U
M$170 VDD VDD VDD VDD pfet_03v3 L=2U W=2U AS=0.84P AD=1.3P PS=2.84U PD=5.3U
M$171 \$151 \$177 \$921 VDD pfet_03v3 L=2U W=2U AS=1.3P AD=0.84P PS=5.3U
+ PD=2.84U
M$172 VDD \$177 \$151 VDD pfet_03v3 L=2U W=2U AS=0.84P AD=1.3P PS=2.84U PD=5.3U
M$173 \$152 \$177 VDD VDD pfet_03v3 L=2U W=2U AS=1.3P AD=0.84P PS=5.3U PD=2.84U
M$174 \$177 \$177 \$152 VDD pfet_03v3 L=2U W=2U AS=0.84P AD=1.3P PS=2.84U
+ PD=5.3U
M$175 VDD VDD VDD VDD pfet_03v3 L=2U W=2U AS=1.3P AD=0.84P PS=5.3U PD=2.84U
M$176 VDD VDD VDD VDD pfet_03v3 L=2U W=2U AS=0.84P AD=1.3P PS=2.84U PD=5.3U
M$177 VDD VDD VDD VDD pfet_03v3 L=2U W=2U AS=1.3P AD=0.84P PS=5.3U PD=2.84U
M$178 VDD VDD VDD VDD pfet_03v3 L=2U W=2U AS=0.84P AD=1.3P PS=2.84U PD=5.3U
M$179 \$153 \$27 \$3 VDD pfet_03v3 L=2U W=2U AS=1.3P AD=0.84P PS=5.3U PD=2.84U
M$180 \$154 \$27 \$153 VDD pfet_03v3 L=2U W=2U AS=0.84P AD=1.3P PS=2.84U PD=5.3U
M$181 \$155 \$27 \$118 VDD pfet_03v3 L=2U W=2U AS=1.3P AD=0.84P PS=5.3U PD=2.84U
M$182 \$2 \$27 \$155 VDD pfet_03v3 L=2U W=2U AS=0.84P AD=1.3P PS=2.84U PD=5.3U
M$183 VDD VDD VDD VDD pfet_03v3 L=2U W=2U AS=1.3P AD=0.84P PS=5.3U PD=2.84U
M$184 VDD VDD VDD VDD pfet_03v3 L=2U W=2U AS=0.84P AD=1.3P PS=2.84U PD=5.3U
M$185 VDD VDD VDD VDD pfet_03v3 L=2U W=2U AS=1.3P AD=0.84P PS=5.3U PD=2.84U
M$186 VDD VDD VDD VDD pfet_03v3 L=2U W=2U AS=0.84P AD=1.3P PS=2.84U PD=5.3U
M$187 \$156 \$178 \$27 VDD pfet_03v3 L=2U W=2U AS=1.3P AD=0.84P PS=5.3U PD=2.84U
M$188 \$32 \$178 \$156 VDD pfet_03v3 L=2U W=2U AS=0.84P AD=1.3P PS=2.84U PD=5.3U
M$189 \$157 \$263 \$32 VDD pfet_03v3 L=2U W=2U AS=1.3P AD=0.84P PS=5.3U PD=2.84U
M$190 \$262 \$263 \$157 VDD pfet_03v3 L=2U W=2U AS=0.84P AD=1.3P PS=2.84U
+ PD=5.3U
M$191 VDD VDD VDD VDD pfet_03v3 L=2U W=2U AS=1.3P AD=0.84P PS=5.3U PD=2.84U
M$192 VDD VDD VDD VDD pfet_03v3 L=2U W=2U AS=0.84P AD=1.3P PS=2.84U PD=5.3U
M$193 VDD VDD VDD VDD pfet_03v3 L=2U W=2U AS=1.3P AD=0.84P PS=5.3U PD=2.84U
M$194 VDD VDD VDD VDD pfet_03v3 L=2U W=2U AS=0.84P AD=1.3P PS=2.84U PD=5.3U
M$195 \$158 \$179 \$923 VDD pfet_03v3 L=2U W=2U AS=1.3P AD=0.84P PS=5.3U
+ PD=2.84U
M$196 VDD \$179 \$158 VDD pfet_03v3 L=2U W=2U AS=0.84P AD=1.3P PS=2.84U PD=5.3U
M$197 \$159 \$179 VDD VDD pfet_03v3 L=2U W=2U AS=1.3P AD=0.84P PS=5.3U PD=2.84U
M$198 \$179 \$179 \$159 VDD pfet_03v3 L=2U W=2U AS=0.84P AD=1.3P PS=2.84U
+ PD=5.3U
M$199 VDD VDD VDD VDD pfet_03v3 L=2U W=2U AS=1.3P AD=0.84P PS=5.3U PD=2.84U
M$200 VDD VDD VDD VDD pfet_03v3 L=2U W=2U AS=0.84P AD=1.3P PS=2.84U PD=5.3U
M$201 VDD VDD VDD VDD pfet_03v3 L=2U W=2U AS=1.3P AD=0.84P PS=5.3U PD=2.84U
M$202 VDD VDD VDD VDD pfet_03v3 L=2U W=2U AS=0.84P AD=1.3P PS=2.84U PD=5.3U
M$203 \$160 \$28 \$4 VDD pfet_03v3 L=2U W=2U AS=1.3P AD=0.84P PS=5.3U PD=2.84U
M$204 \$161 \$28 \$160 VDD pfet_03v3 L=2U W=2U AS=0.84P AD=1.3P PS=2.84U PD=5.3U
M$205 \$162 \$28 \$119 VDD pfet_03v3 L=2U W=2U AS=1.3P AD=0.84P PS=5.3U PD=2.84U
M$206 \$3 \$28 \$162 VDD pfet_03v3 L=2U W=2U AS=0.84P AD=1.3P PS=2.84U PD=5.3U
M$207 VDD VDD VDD VDD pfet_03v3 L=2U W=2U AS=1.3P AD=0.84P PS=5.3U PD=2.84U
M$208 VDD VDD VDD VDD pfet_03v3 L=2U W=2U AS=0.84P AD=1.3P PS=2.84U PD=5.3U
M$209 VDD VDD VDD VDD pfet_03v3 L=2U W=2U AS=1.3P AD=0.84P PS=5.3U PD=2.84U
M$210 VDD VDD VDD VDD pfet_03v3 L=2U W=2U AS=0.84P AD=1.3P PS=2.84U PD=5.3U
M$211 \$163 \$180 \$28 VDD pfet_03v3 L=2U W=2U AS=1.3P AD=0.84P PS=5.3U PD=2.84U
M$212 \$33 \$180 \$163 VDD pfet_03v3 L=2U W=2U AS=0.84P AD=1.3P PS=2.84U PD=5.3U
M$213 \$164 \$265 \$33 VDD pfet_03v3 L=2U W=2U AS=1.3P AD=0.84P PS=5.3U PD=2.84U
M$214 \$264 \$265 \$164 VDD pfet_03v3 L=2U W=2U AS=0.84P AD=1.3P PS=2.84U
+ PD=5.3U
M$215 VDD VDD VDD VDD pfet_03v3 L=2U W=2U AS=1.3P AD=0.84P PS=5.3U PD=2.84U
M$216 VDD VDD VDD VDD pfet_03v3 L=2U W=2U AS=0.84P AD=1.3P PS=2.84U PD=5.3U
M$217 VDD VDD VDD VDD pfet_03v3 L=2U W=2U AS=1.3P AD=0.84P PS=5.3U PD=2.84U
M$218 VDD VDD VDD VDD pfet_03v3 L=2U W=2U AS=0.84P AD=1.3P PS=2.84U PD=5.3U
M$219 \$165 \$181 \$925 VDD pfet_03v3 L=2U W=2U AS=1.3P AD=0.84P PS=5.3U
+ PD=2.84U
M$220 VDD \$181 \$165 VDD pfet_03v3 L=2U W=2U AS=0.84P AD=1.3P PS=2.84U PD=5.3U
M$221 \$166 \$181 VDD VDD pfet_03v3 L=2U W=2U AS=1.3P AD=0.84P PS=5.3U PD=2.84U
M$222 \$181 \$181 \$166 VDD pfet_03v3 L=2U W=2U AS=0.84P AD=1.3P PS=2.84U
+ PD=5.3U
M$223 VDD VDD VDD VDD pfet_03v3 L=2U W=2U AS=1.3P AD=0.84P PS=5.3U PD=2.84U
M$224 VDD VDD VDD VDD pfet_03v3 L=2U W=2U AS=0.84P AD=1.3P PS=2.84U PD=5.3U
M$225 VDD VDD VDD VDD pfet_03v3 L=2U W=2U AS=1.3P AD=0.84P PS=5.3U PD=2.84U
M$226 VDD VDD VDD VDD pfet_03v3 L=2U W=2U AS=0.84P AD=1.3P PS=2.84U PD=5.3U
M$227 \$168 \$29 B2 VDD pfet_03v3 L=2U W=2U AS=1.3P AD=0.84P PS=5.3U PD=2.84U
M$228 \$169 \$29 \$168 VDD pfet_03v3 L=2U W=2U AS=0.84P AD=1.3P PS=2.84U PD=5.3U
M$229 \$170 \$29 \$120 VDD pfet_03v3 L=2U W=2U AS=1.3P AD=0.84P PS=5.3U PD=2.84U
M$230 \$4 \$29 \$170 VDD pfet_03v3 L=2U W=2U AS=0.84P AD=1.3P PS=2.84U PD=5.3U
M$231 VDD VDD VDD VDD pfet_03v3 L=2U W=2U AS=1.3P AD=0.84P PS=5.3U PD=2.84U
M$232 VDD VDD VDD VDD pfet_03v3 L=2U W=2U AS=0.84P AD=1.3P PS=2.84U PD=5.3U
M$233 VDD VDD VDD VDD pfet_03v3 L=2U W=2U AS=1.3P AD=0.84P PS=5.3U PD=2.84U
M$234 VDD VDD VDD VDD pfet_03v3 L=2U W=2U AS=0.84P AD=1.3P PS=2.84U PD=5.3U
M$235 \$171 \$182 \$29 VDD pfet_03v3 L=2U W=2U AS=1.3P AD=0.84P PS=5.3U PD=2.84U
M$236 \$34 \$182 \$171 VDD pfet_03v3 L=2U W=2U AS=0.84P AD=1.3P PS=2.84U PD=5.3U
M$237 \$172 \$267 \$34 VDD pfet_03v3 L=2U W=2U AS=1.3P AD=0.84P PS=5.3U PD=2.84U
M$238 \$266 \$267 \$172 VDD pfet_03v3 L=2U W=2U AS=0.84P AD=1.3P PS=2.84U
+ PD=5.3U
M$239 VDD VDD VDD VDD pfet_03v3 L=2U W=2U AS=1.3P AD=0.84P PS=5.3U PD=2.84U
M$240 VDD VDD VDD VDD pfet_03v3 L=2U W=2U AS=0.84P AD=1.3P PS=2.84U PD=5.3U
M$241 VDD VDD VDD VDD pfet_03v3 L=2U W=2U AS=1.3P AD=0.84P PS=5.3U PD=2.84U
M$242 VDD VDD VDD VDD pfet_03v3 L=2U W=2U AS=0.84P AD=1.3P PS=2.84U PD=5.3U
M$243 \$308 \$173 \$173 VDD pfet_03v3 L=2U W=2U AS=1.3P AD=0.84P PS=5.3U
+ PD=2.84U
M$244 VDD \$173 \$308 VDD pfet_03v3 L=2U W=2U AS=0.84P AD=1.3P PS=2.84U PD=5.3U
M$245 \$309 \$173 VDD VDD pfet_03v3 L=2U W=2U AS=1.3P AD=0.84P PS=5.3U PD=2.84U
M$246 \$917 \$173 \$309 VDD pfet_03v3 L=2U W=2U AS=0.84P AD=1.3P PS=2.84U
+ PD=5.3U
M$247 VDD VDD VDD VDD pfet_03v3 L=2U W=2U AS=1.3P AD=0.84P PS=5.3U PD=2.84U
M$248 VDD VDD VDD VDD pfet_03v3 L=2U W=2U AS=0.84P AD=1.3P PS=2.84U PD=5.3U
M$249 VDD VDD VDD VDD pfet_03v3 L=2U W=2U AS=1.3P AD=0.84P PS=5.3U PD=2.84U
M$250 VDD VDD VDD VDD pfet_03v3 L=2U W=2U AS=0.84P AD=1.3P PS=2.84U PD=5.3U
M$251 \$310 \$25 \$174 VDD pfet_03v3 L=2U W=2U AS=1.3P AD=0.84P PS=5.3U PD=2.84U
M$252 VSS \$25 \$310 VDD pfet_03v3 L=2U W=2U AS=0.84P AD=1.3P PS=2.84U PD=5.3U
M$253 \$311 \$25 VSS VDD pfet_03v3 L=2U W=2U AS=1.3P AD=0.84P PS=5.3U PD=2.84U
M$254 \$174 \$25 \$311 VDD pfet_03v3 L=2U W=2U AS=0.84P AD=1.3P PS=2.84U PD=5.3U
M$255 VDD VDD VDD VDD pfet_03v3 L=2U W=2U AS=1.3P AD=0.84P PS=5.3U PD=2.84U
M$256 VDD VDD VDD VDD pfet_03v3 L=2U W=2U AS=0.84P AD=1.3P PS=2.84U PD=5.3U
M$257 VDD VDD VDD VDD pfet_03v3 L=2U W=2U AS=1.3P AD=0.84P PS=5.3U PD=2.84U
M$258 VDD VDD VDD VDD pfet_03v3 L=2U W=2U AS=0.84P AD=1.3P PS=2.84U PD=5.3U
M$259 \$312 \$259 \$258 VDD pfet_03v3 L=2U W=2U AS=1.3P AD=0.84P PS=5.3U
+ PD=2.84U
M$260 \$30 \$259 \$312 VDD pfet_03v3 L=2U W=2U AS=0.84P AD=1.3P PS=2.84U PD=5.3U
M$261 \$313 \$174 \$30 VDD pfet_03v3 L=2U W=2U AS=1.3P AD=0.84P PS=5.3U PD=2.84U
M$262 \$25 \$174 \$313 VDD pfet_03v3 L=2U W=2U AS=0.84P AD=1.3P PS=2.84U PD=5.3U
M$263 VDD VDD VDD VDD pfet_03v3 L=2U W=2U AS=1.3P AD=0.84P PS=5.3U PD=2.84U
M$264 VDD VDD VDD VDD pfet_03v3 L=2U W=2U AS=0.84P AD=1.3P PS=2.84U PD=5.3U
M$265 VDD VDD VDD VDD pfet_03v3 L=2U W=2U AS=1.3P AD=0.84P PS=5.3U PD=2.84U
M$266 VDD VDD VDD VDD pfet_03v3 L=2U W=2U AS=0.84P AD=1.3P PS=2.84U PD=5.3U
M$267 \$314 \$175 \$175 VDD pfet_03v3 L=2U W=2U AS=1.3P AD=0.84P PS=5.3U
+ PD=2.84U
M$268 VDD \$175 \$314 VDD pfet_03v3 L=2U W=2U AS=0.84P AD=1.3P PS=2.84U PD=5.3U
M$269 \$315 \$175 VDD VDD pfet_03v3 L=2U W=2U AS=1.3P AD=0.84P PS=5.3U PD=2.84U
M$270 \$919 \$175 \$315 VDD pfet_03v3 L=2U W=2U AS=0.84P AD=1.3P PS=2.84U
+ PD=5.3U
M$271 VDD VDD VDD VDD pfet_03v3 L=2U W=2U AS=1.3P AD=0.84P PS=5.3U PD=2.84U
M$272 VDD VDD VDD VDD pfet_03v3 L=2U W=2U AS=0.84P AD=1.3P PS=2.84U PD=5.3U
M$273 VDD VDD VDD VDD pfet_03v3 L=2U W=2U AS=1.3P AD=0.84P PS=5.3U PD=2.84U
M$274 VDD VDD VDD VDD pfet_03v3 L=2U W=2U AS=0.84P AD=1.3P PS=2.84U PD=5.3U
M$275 \$316 \$26 \$176 VDD pfet_03v3 L=2U W=2U AS=1.3P AD=0.84P PS=5.3U PD=2.84U
M$276 VSS \$26 \$316 VDD pfet_03v3 L=2U W=2U AS=0.84P AD=1.3P PS=2.84U PD=5.3U
M$277 \$317 \$26 VSS VDD pfet_03v3 L=2U W=2U AS=1.3P AD=0.84P PS=5.3U PD=2.84U
M$278 \$176 \$26 \$317 VDD pfet_03v3 L=2U W=2U AS=0.84P AD=1.3P PS=2.84U PD=5.3U
M$279 VDD VDD VDD VDD pfet_03v3 L=2U W=2U AS=1.3P AD=0.84P PS=5.3U PD=2.84U
M$280 VDD VDD VDD VDD pfet_03v3 L=2U W=2U AS=0.84P AD=1.3P PS=2.84U PD=5.3U
M$281 VDD VDD VDD VDD pfet_03v3 L=2U W=2U AS=1.3P AD=0.84P PS=5.3U PD=2.84U
M$282 VDD VDD VDD VDD pfet_03v3 L=2U W=2U AS=0.84P AD=1.3P PS=2.84U PD=5.3U
M$283 \$318 \$261 \$260 VDD pfet_03v3 L=2U W=2U AS=1.3P AD=0.84P PS=5.3U
+ PD=2.84U
M$284 \$31 \$261 \$318 VDD pfet_03v3 L=2U W=2U AS=0.84P AD=1.3P PS=2.84U PD=5.3U
M$285 \$319 \$176 \$31 VDD pfet_03v3 L=2U W=2U AS=1.3P AD=0.84P PS=5.3U PD=2.84U
M$286 \$26 \$176 \$319 VDD pfet_03v3 L=2U W=2U AS=0.84P AD=1.3P PS=2.84U PD=5.3U
M$287 VDD VDD VDD VDD pfet_03v3 L=2U W=2U AS=1.3P AD=0.84P PS=5.3U PD=2.84U
M$288 VDD VDD VDD VDD pfet_03v3 L=2U W=2U AS=0.84P AD=1.3P PS=2.84U PD=5.3U
M$289 VDD VDD VDD VDD pfet_03v3 L=2U W=2U AS=1.3P AD=0.84P PS=5.3U PD=2.84U
M$290 VDD VDD VDD VDD pfet_03v3 L=2U W=2U AS=0.84P AD=1.3P PS=2.84U PD=5.3U
M$291 \$320 \$177 \$177 VDD pfet_03v3 L=2U W=2U AS=1.3P AD=0.84P PS=5.3U
+ PD=2.84U
M$292 VDD \$177 \$320 VDD pfet_03v3 L=2U W=2U AS=0.84P AD=1.3P PS=2.84U PD=5.3U
M$293 \$321 \$177 VDD VDD pfet_03v3 L=2U W=2U AS=1.3P AD=0.84P PS=5.3U PD=2.84U
M$294 \$921 \$177 \$321 VDD pfet_03v3 L=2U W=2U AS=0.84P AD=1.3P PS=2.84U
+ PD=5.3U
M$295 VDD VDD VDD VDD pfet_03v3 L=2U W=2U AS=1.3P AD=0.84P PS=5.3U PD=2.84U
M$296 VDD VDD VDD VDD pfet_03v3 L=2U W=2U AS=0.84P AD=1.3P PS=2.84U PD=5.3U
M$297 VDD VDD VDD VDD pfet_03v3 L=2U W=2U AS=1.3P AD=0.84P PS=5.3U PD=2.84U
M$298 VDD VDD VDD VDD pfet_03v3 L=2U W=2U AS=0.84P AD=1.3P PS=2.84U PD=5.3U
M$299 \$322 \$27 \$178 VDD pfet_03v3 L=2U W=2U AS=1.3P AD=0.84P PS=5.3U PD=2.84U
M$300 VSS \$27 \$322 VDD pfet_03v3 L=2U W=2U AS=0.84P AD=1.3P PS=2.84U PD=5.3U
M$301 \$323 \$27 VSS VDD pfet_03v3 L=2U W=2U AS=1.3P AD=0.84P PS=5.3U PD=2.84U
M$302 \$178 \$27 \$323 VDD pfet_03v3 L=2U W=2U AS=0.84P AD=1.3P PS=2.84U PD=5.3U
M$303 VDD VDD VDD VDD pfet_03v3 L=2U W=2U AS=1.3P AD=0.84P PS=5.3U PD=2.84U
M$304 VDD VDD VDD VDD pfet_03v3 L=2U W=2U AS=0.84P AD=1.3P PS=2.84U PD=5.3U
M$305 VDD VDD VDD VDD pfet_03v3 L=2U W=2U AS=1.3P AD=0.84P PS=5.3U PD=2.84U
M$306 VDD VDD VDD VDD pfet_03v3 L=2U W=2U AS=0.84P AD=1.3P PS=2.84U PD=5.3U
M$307 \$324 \$263 \$262 VDD pfet_03v3 L=2U W=2U AS=1.3P AD=0.84P PS=5.3U
+ PD=2.84U
M$308 \$32 \$263 \$324 VDD pfet_03v3 L=2U W=2U AS=0.84P AD=1.3P PS=2.84U PD=5.3U
M$309 \$325 \$178 \$32 VDD pfet_03v3 L=2U W=2U AS=1.3P AD=0.84P PS=5.3U PD=2.84U
M$310 \$27 \$178 \$325 VDD pfet_03v3 L=2U W=2U AS=0.84P AD=1.3P PS=2.84U PD=5.3U
M$311 VDD VDD VDD VDD pfet_03v3 L=2U W=2U AS=1.3P AD=0.84P PS=5.3U PD=2.84U
M$312 VDD VDD VDD VDD pfet_03v3 L=2U W=2U AS=0.84P AD=1.3P PS=2.84U PD=5.3U
M$313 VDD VDD VDD VDD pfet_03v3 L=2U W=2U AS=1.3P AD=0.84P PS=5.3U PD=2.84U
M$314 VDD VDD VDD VDD pfet_03v3 L=2U W=2U AS=0.84P AD=1.3P PS=2.84U PD=5.3U
M$315 \$326 \$179 \$179 VDD pfet_03v3 L=2U W=2U AS=1.3P AD=0.84P PS=5.3U
+ PD=2.84U
M$316 VDD \$179 \$326 VDD pfet_03v3 L=2U W=2U AS=0.84P AD=1.3P PS=2.84U PD=5.3U
M$317 \$327 \$179 VDD VDD pfet_03v3 L=2U W=2U AS=1.3P AD=0.84P PS=5.3U PD=2.84U
M$318 \$923 \$179 \$327 VDD pfet_03v3 L=2U W=2U AS=0.84P AD=1.3P PS=2.84U
+ PD=5.3U
M$319 VDD VDD VDD VDD pfet_03v3 L=2U W=2U AS=1.3P AD=0.84P PS=5.3U PD=2.84U
M$320 VDD VDD VDD VDD pfet_03v3 L=2U W=2U AS=0.84P AD=1.3P PS=2.84U PD=5.3U
M$321 VDD VDD VDD VDD pfet_03v3 L=2U W=2U AS=1.3P AD=0.84P PS=5.3U PD=2.84U
M$322 VDD VDD VDD VDD pfet_03v3 L=2U W=2U AS=0.84P AD=1.3P PS=2.84U PD=5.3U
M$323 \$328 \$28 \$180 VDD pfet_03v3 L=2U W=2U AS=1.3P AD=0.84P PS=5.3U PD=2.84U
M$324 VSS \$28 \$328 VDD pfet_03v3 L=2U W=2U AS=0.84P AD=1.3P PS=2.84U PD=5.3U
M$325 \$329 \$28 VSS VDD pfet_03v3 L=2U W=2U AS=1.3P AD=0.84P PS=5.3U PD=2.84U
M$326 \$180 \$28 \$329 VDD pfet_03v3 L=2U W=2U AS=0.84P AD=1.3P PS=2.84U PD=5.3U
M$327 VDD VDD VDD VDD pfet_03v3 L=2U W=2U AS=1.3P AD=0.84P PS=5.3U PD=2.84U
M$328 VDD VDD VDD VDD pfet_03v3 L=2U W=2U AS=0.84P AD=1.3P PS=2.84U PD=5.3U
M$329 VDD VDD VDD VDD pfet_03v3 L=2U W=2U AS=1.3P AD=0.84P PS=5.3U PD=2.84U
M$330 VDD VDD VDD VDD pfet_03v3 L=2U W=2U AS=0.84P AD=1.3P PS=2.84U PD=5.3U
M$331 \$330 \$265 \$264 VDD pfet_03v3 L=2U W=2U AS=1.3P AD=0.84P PS=5.3U
+ PD=2.84U
M$332 \$33 \$265 \$330 VDD pfet_03v3 L=2U W=2U AS=0.84P AD=1.3P PS=2.84U PD=5.3U
M$333 \$331 \$180 \$33 VDD pfet_03v3 L=2U W=2U AS=1.3P AD=0.84P PS=5.3U PD=2.84U
M$334 \$28 \$180 \$331 VDD pfet_03v3 L=2U W=2U AS=0.84P AD=1.3P PS=2.84U PD=5.3U
M$335 VDD VDD VDD VDD pfet_03v3 L=2U W=2U AS=1.3P AD=0.84P PS=5.3U PD=2.84U
M$336 VDD VDD VDD VDD pfet_03v3 L=2U W=2U AS=0.84P AD=1.3P PS=2.84U PD=5.3U
M$337 VDD VDD VDD VDD pfet_03v3 L=2U W=2U AS=1.3P AD=0.84P PS=5.3U PD=2.84U
M$338 VDD VDD VDD VDD pfet_03v3 L=2U W=2U AS=0.84P AD=1.3P PS=2.84U PD=5.3U
M$339 \$332 \$181 \$181 VDD pfet_03v3 L=2U W=2U AS=1.3P AD=0.84P PS=5.3U
+ PD=2.84U
M$340 VDD \$181 \$332 VDD pfet_03v3 L=2U W=2U AS=0.84P AD=1.3P PS=2.84U PD=5.3U
M$341 \$333 \$181 VDD VDD pfet_03v3 L=2U W=2U AS=1.3P AD=0.84P PS=5.3U PD=2.84U
M$342 \$925 \$181 \$333 VDD pfet_03v3 L=2U W=2U AS=0.84P AD=1.3P PS=2.84U
+ PD=5.3U
M$343 VDD VDD VDD VDD pfet_03v3 L=2U W=2U AS=1.3P AD=0.84P PS=5.3U PD=2.84U
M$344 VDD VDD VDD VDD pfet_03v3 L=2U W=2U AS=0.84P AD=1.3P PS=2.84U PD=5.3U
M$345 VDD VDD VDD VDD pfet_03v3 L=2U W=2U AS=1.3P AD=0.84P PS=5.3U PD=2.84U
M$346 VDD VDD VDD VDD pfet_03v3 L=2U W=2U AS=0.84P AD=1.3P PS=2.84U PD=5.3U
M$347 \$334 \$29 \$182 VDD pfet_03v3 L=2U W=2U AS=1.3P AD=0.84P PS=5.3U PD=2.84U
M$348 VSS \$29 \$334 VDD pfet_03v3 L=2U W=2U AS=0.84P AD=1.3P PS=2.84U PD=5.3U
M$349 \$335 \$29 VSS VDD pfet_03v3 L=2U W=2U AS=1.3P AD=0.84P PS=5.3U PD=2.84U
M$350 \$182 \$29 \$335 VDD pfet_03v3 L=2U W=2U AS=0.84P AD=1.3P PS=2.84U PD=5.3U
M$351 VDD VDD VDD VDD pfet_03v3 L=2U W=2U AS=1.3P AD=0.84P PS=5.3U PD=2.84U
M$352 VDD VDD VDD VDD pfet_03v3 L=2U W=2U AS=0.84P AD=1.3P PS=2.84U PD=5.3U
M$353 VDD VDD VDD VDD pfet_03v3 L=2U W=2U AS=1.3P AD=0.84P PS=5.3U PD=2.84U
M$354 VDD VDD VDD VDD pfet_03v3 L=2U W=2U AS=0.84P AD=1.3P PS=2.84U PD=5.3U
M$355 \$336 \$267 \$266 VDD pfet_03v3 L=2U W=2U AS=1.3P AD=0.84P PS=5.3U
+ PD=2.84U
M$356 \$34 \$267 \$336 VDD pfet_03v3 L=2U W=2U AS=0.84P AD=1.3P PS=2.84U PD=5.3U
M$357 \$337 \$182 \$34 VDD pfet_03v3 L=2U W=2U AS=1.3P AD=0.84P PS=5.3U PD=2.84U
M$358 \$29 \$182 \$337 VDD pfet_03v3 L=2U W=2U AS=0.84P AD=1.3P PS=2.84U PD=5.3U
M$359 VDD VDD VDD VDD pfet_03v3 L=2U W=2U AS=1.3P AD=0.84P PS=5.3U PD=2.84U
M$360 VDD VDD VDD VDD pfet_03v3 L=2U W=2U AS=0.84P AD=1.3P PS=2.84U PD=5.3U
M$361 VDD VDD VDD VDD pfet_03v3 L=2U W=2U AS=1.3P AD=0.84P PS=5.3U PD=2.84U
M$362 VDD VDD VDD VDD pfet_03v3 L=2U W=2U AS=0.84P AD=1.3P PS=2.84U PD=5.3U
M$363 \$443 \$173 \$917 VDD pfet_03v3 L=2U W=2U AS=1.3P AD=0.84P PS=5.3U
+ PD=2.84U
M$364 VDD \$173 \$443 VDD pfet_03v3 L=2U W=2U AS=0.84P AD=1.3P PS=2.84U PD=5.3U
M$365 \$444 \$173 VDD VDD pfet_03v3 L=2U W=2U AS=1.3P AD=0.84P PS=5.3U PD=2.84U
M$366 \$173 \$173 \$444 VDD pfet_03v3 L=2U W=2U AS=0.84P AD=1.3P PS=2.84U
+ PD=5.3U
M$367 VDD VDD VDD VDD pfet_03v3 L=2U W=2U AS=1.3P AD=0.84P PS=5.3U PD=2.84U
M$368 VDD VDD VDD VDD pfet_03v3 L=2U W=2U AS=0.84P AD=1.3P PS=2.84U PD=5.3U
M$369 VDD VDD VDD VDD pfet_03v3 L=2U W=2U AS=1.3P AD=0.84P PS=5.3U PD=2.84U
M$370 VDD VDD VDD VDD pfet_03v3 L=2U W=2U AS=0.84P AD=1.3P PS=2.84U PD=5.3U
M$371 \$445 \$25 \$174 VDD pfet_03v3 L=2U W=2U AS=1.3P AD=0.84P PS=5.3U PD=2.84U
M$372 VSS \$25 \$445 VDD pfet_03v3 L=2U W=2U AS=0.84P AD=1.3P PS=2.84U PD=5.3U
M$373 \$446 \$25 VSS VDD pfet_03v3 L=2U W=2U AS=1.3P AD=0.84P PS=5.3U PD=2.84U
M$374 \$174 \$25 \$446 VDD pfet_03v3 L=2U W=2U AS=0.84P AD=1.3P PS=2.84U PD=5.3U
M$375 VDD VDD VDD VDD pfet_03v3 L=2U W=2U AS=1.3P AD=0.84P PS=5.3U PD=2.84U
M$376 VDD VDD VDD VDD pfet_03v3 L=2U W=2U AS=0.84P AD=1.3P PS=2.84U PD=5.3U
M$377 VDD VDD VDD VDD pfet_03v3 L=2U W=2U AS=1.3P AD=0.84P PS=5.3U PD=2.84U
M$378 VDD VDD VDD VDD pfet_03v3 L=2U W=2U AS=0.84P AD=1.3P PS=2.84U PD=5.3U
M$379 \$447 \$174 \$25 VDD pfet_03v3 L=2U W=2U AS=1.3P AD=0.84P PS=5.3U PD=2.84U
M$380 \$30 \$174 \$447 VDD pfet_03v3 L=2U W=2U AS=0.84P AD=1.3P PS=2.84U PD=5.3U
M$381 \$448 \$259 \$30 VDD pfet_03v3 L=2U W=2U AS=1.3P AD=0.84P PS=5.3U PD=2.84U
M$382 \$258 \$259 \$448 VDD pfet_03v3 L=2U W=2U AS=0.84P AD=1.3P PS=2.84U
+ PD=5.3U
M$383 VDD VDD VDD VDD pfet_03v3 L=2U W=2U AS=1.3P AD=0.84P PS=5.3U PD=2.84U
M$384 VDD VDD VDD VDD pfet_03v3 L=2U W=2U AS=0.84P AD=1.3P PS=2.84U PD=5.3U