* NGSPICE file created from PRbiased_net.ext - technology: gf180mcuD

.subckt PRbiased_net VSS VDD ITN IBN VA IBP VB ITP
X0 ITP IBP.t4 a_12130_9713# VDD.t8 pfet_03v3 ad=1.3p pd=5.3u as=0.84p ps=2.84u w=2u l=2u
X1 a_412_1806# IBN.t4 a_n160_7781.t3 VSS.t19 nfet_03v3 ad=0.8p pd=2.8u as=1.22p ps=5.22u w=2u l=2u
X2 VSS.t225 VSS.t224 VSS.t225 VSS.t35 nfet_03v3 ad=0.8p pd=2.8u as=0 ps=0 w=2u l=2u
X3 VDD.t222 VDD.t221 VDD.t222 VDD.t56 pfet_03v3 ad=0.84p pd=2.84u as=0 ps=0 w=2u l=2u
X4 VDD.t220 VDD.t219 VDD.t220 VDD.t80 pfet_03v3 ad=1.3p pd=5.3u as=0 ps=0 w=2u l=2u
X5 VSS.t223 VSS.t222 VSS.t223 VSS.t29 nfet_03v3 ad=1.22p pd=5.22u as=0 ps=0 w=2u l=2u
X6 a_12101_2572# a_11579_648.t5 a_11579_648.t6 VSS.t1 nfet_03v3 ad=0.8p pd=2.8u as=1.22p ps=5.22u w=2u l=2u
X7 a_6218_1806# a_n160_7781.t8 VDD.t226 VSS.t6 nfet_03v3 ad=0.8p pd=2.8u as=1.22p ps=5.22u w=2u l=2u
X8 VDD.t218 VDD.t217 VDD.t218 VDD.t24 pfet_03v3 ad=1.3p pd=5.3u as=0 ps=0 w=2u l=2u
X9 VDD.t216 VDD.t215 VDD.t216 VDD.t24 pfet_03v3 ad=1.3p pd=5.3u as=0 ps=0 w=2u l=2u
X10 a_1776_9713# a_n160_6615.t13 VDD.t224 VDD.t15 pfet_03v3 ad=0.84p pd=2.84u as=1.3p ps=5.3u w=2u l=2u
X11 VDD.t214 VDD.t213 VDD.t214 VDD.t142 pfet_03v3 ad=1.3p pd=5.3u as=0 ps=0 w=2u l=2u
X12 VSS.t221 VSS.t220 VSS.t221 VSS.t18 nfet_03v3 ad=0.8p pd=2.8u as=0 ps=0 w=2u l=2u
X13 VSS.t219 VSS.t218 VSS.t219 VSS.t4 nfet_03v3 ad=0.8p pd=2.8u as=0 ps=0 w=2u l=2u
X14 VDD.t212 VDD.t211 VDD.t212 VDD.t21 pfet_03v3 ad=1.3p pd=5.3u as=0 ps=0 w=2u l=2u
X15 ITP a_12_588.t3 a_12130_8547# VDD.t8 pfet_03v3 ad=1.3p pd=5.3u as=0.84p ps=2.84u w=2u l=2u
X16 VSS.t217 VSS.t216 VSS.t217 VSS.t68 nfet_03v3 ad=0.8p pd=2.8u as=0 ps=0 w=2u l=2u
X17 VSS.t215 VSS.t214 VSS.t215 VSS.t52 nfet_03v3 ad=0.8p pd=2.8u as=0 ps=0 w=2u l=2u
X18 VSS.t213 VSS.t212 VSS.t213 VSS.t3 nfet_03v3 ad=1.22p pd=5.22u as=0 ps=0 w=2u l=2u
X19 VDD.t210 VDD.t209 VDD.t210 VDD.t56 pfet_03v3 ad=0.84p pd=2.84u as=0 ps=0 w=2u l=2u
X20 ITP a_12_588.t3 a_12130_6615# VDD.t8 pfet_03v3 ad=1.3p pd=5.3u as=0.84p ps=2.84u w=2u l=2u
X21 VSS.t211 VSS.t210 VSS.t211 VSS.t49 nfet_03v3 ad=1.22p pd=5.22u as=0 ps=0 w=2u l=2u
X22 VDD.t208 VDD.t207 VDD.t208 VDD.t93 pfet_03v3 ad=0.84p pd=2.84u as=0 ps=0 w=2u l=2u
X23 VDD.t206 VDD.t205 VDD.t206 VDD.t56 pfet_03v3 ad=0.84p pd=2.84u as=0 ps=0 w=2u l=2u
X24 VDD.t204 VDD.t203 VDD.t204 VDD.t80 pfet_03v3 ad=1.3p pd=5.3u as=0 ps=0 w=2u l=2u
X25 VDD.t202 VDD.t201 VDD.t202 VDD.t80 pfet_03v3 ad=1.3p pd=5.3u as=0 ps=0 w=2u l=2u
X26 VSS.t209 VSS.t208 VSS.t209 VSS.t5 nfet_03v3 ad=0.8p pd=2.8u as=0 ps=0 w=2u l=2u
X27 VSS.t207 VSS.t206 VSS.t207 VSS.t32 nfet_03v3 ad=1.22p pd=5.22u as=0 ps=0 w=2u l=2u
X28 VDD.t200 VDD.t199 VDD.t200 VDD.t123 pfet_03v3 ad=1.3p pd=5.3u as=0 ps=0 w=2u l=2u
X29 VDD.t198 VDD.t197 VDD.t198 VDD.t24 pfet_03v3 ad=1.3p pd=5.3u as=0 ps=0 w=2u l=2u
X30 VSS.t205 VSS.t204 VSS.t205 VSS.t59 nfet_03v3 ad=1.22p pd=5.22u as=0 ps=0 w=2u l=2u
X31 a_1776_8547# a_n160_6615.t16 VDD.t16 VDD.t15 pfet_03v3 ad=0.84p pd=2.84u as=1.3p ps=5.3u w=2u l=2u
X32 VDD.t196 VDD.t195 VDD.t196 VDD.t142 pfet_03v3 ad=1.3p pd=5.3u as=0 ps=0 w=2u l=2u
X33 a_1776_6615# a_n160_6615.t17 VDD.t17 VDD.t15 pfet_03v3 ad=0.84p pd=2.84u as=1.3p ps=5.3u w=2u l=2u
X34 VDD.t194 VDD.t193 VDD.t194 VDD.t142 pfet_03v3 ad=1.3p pd=5.3u as=0 ps=0 w=2u l=2u
X35 a_1816_3730# a_12_588.t2 ITN.t5 VSS.t20 nfet_03v3 ad=0.8p pd=2.8u as=1.22p ps=5.22u w=2u l=2u
X36 VSS.t203 VSS.t202 VSS.t203 VSS.t41 nfet_03v3 ad=1.22p pd=5.22u as=0 ps=0 w=2u l=2u
X37 VSS.t201 VSS.t200 VSS.t201 VSS.t38 nfet_03v3 ad=1.22p pd=5.22u as=0 ps=0 w=2u l=2u
X38 a_13505_3730# a_11579_648.t12 VSS.t9 VSS.t7 nfet_03v3 ad=0.8p pd=2.8u as=1.22p ps=5.22u w=2u l=2u
X39 VDD.t192 VDD.t191 VDD.t192 VDD.t123 pfet_03v3 ad=1.3p pd=5.3u as=0 ps=0 w=2u l=2u
X40 VSS.t199 VSS.t198 VSS.t199 VSS.t1 nfet_03v3 ad=1.22p pd=5.22u as=0 ps=0 w=2u l=2u
X41 VDD.t190 VDD.t189 VDD.t190 VDD.t2 pfet_03v3 ad=0.84p pd=2.84u as=0 ps=0 w=2u l=2u
X42 VDD.t188 VDD.t187 VDD.t188 VDD.t8 pfet_03v3 ad=0.84p pd=2.84u as=0 ps=0 w=2u l=2u
X43 VSS.t197 VSS.t196 VSS.t197 VSS.t46 nfet_03v3 ad=0.8p pd=2.8u as=0 ps=0 w=2u l=2u
X44 VDD.t186 VDD.t185 VDD.t186 VDD.t149 pfet_03v3 ad=0.84p pd=2.84u as=0 ps=0 w=2u l=2u
X45 VDD.t184 VDD.t183 VDD.t184 VDD.t56 pfet_03v3 ad=0.84p pd=2.84u as=0 ps=0 w=2u l=2u
X46 VDD.t182 VDD.t181 VDD.t182 VDD.t80 pfet_03v3 ad=1.3p pd=5.3u as=0 ps=0 w=2u l=2u
X47 VSS.t195 VSS.t194 VSS.t195 VSS.t68 nfet_03v3 ad=0.8p pd=2.8u as=0 ps=0 w=2u l=2u
X48 VDD.t180 VDD.t179 VDD.t180 VDD.t24 pfet_03v3 ad=1.3p pd=5.3u as=0 ps=0 w=2u l=2u
X49 VDD.t178 VDD.t177 VDD.t178 VDD.t75 pfet_03v3 ad=0.84p pd=2.84u as=0 ps=0 w=2u l=2u
X50 VDD.t176 VDD.t175 VDD.t176 VDD.t123 pfet_03v3 ad=1.3p pd=5.3u as=0 ps=0 w=2u l=2u
X51 VDD.t174 VDD.t173 VDD.t174 VDD.t123 pfet_03v3 ad=1.3p pd=5.3u as=0 ps=0 w=2u l=2u
X52 a_1816_648# IBN.t6 ITN.t2 VSS.t20 nfet_03v3 ad=0.8p pd=2.8u as=1.22p ps=5.22u w=2u l=2u
X53 a_12101_648# a_11579_648.t9 a_11579_648.t10 VSS.t1 nfet_03v3 ad=0.8p pd=2.8u as=1.22p ps=5.22u w=2u l=2u
X54 VDD.t172 VDD.t171 VDD.t172 VDD.t15 pfet_03v3 ad=1.3p pd=5.3u as=0 ps=0 w=2u l=2u
X55 VDD.t170 VDD.t169 VDD.t170 VDD.t100 pfet_03v3 ad=0.84p pd=2.84u as=0 ps=0 w=2u l=2u
X56 VDD.t168 VDD.t167 VDD.t168 VDD.t142 pfet_03v3 ad=1.3p pd=5.3u as=0 ps=0 w=2u l=2u
X57 VSS.t193 VSS.t192 VSS.t193 VSS.t59 nfet_03v3 ad=1.22p pd=5.22u as=0 ps=0 w=2u l=2u
X58 VSS.t191 VSS.t190 VSS.t191 VSS.t26 nfet_03v3 ad=0.8p pd=2.8u as=0 ps=0 w=2u l=2u
X59 VSS.t189 VSS.t188 VSS.t189 VSS.t23 nfet_03v3 ad=0.8p pd=2.8u as=0 ps=0 w=2u l=2u
X60 ITP IBP.t5 a_12130_7781# VDD.t8 pfet_03v3 ad=1.3p pd=5.3u as=0.84p ps=2.84u w=2u l=2u
X61 VSS a_11579_648.t14 a_12101_3730# VSS.t13 nfet_03v3 ad=1.22p pd=5.22u as=0.8p ps=2.8u w=2u l=2u
X62 VDD.t166 VDD.t165 VDD.t166 VDD.t93 pfet_03v3 ad=0.84p pd=2.84u as=0 ps=0 w=2u l=2u
X63 VDD.t164 VDD.t163 VDD.t164 VDD.t56 pfet_03v3 ad=0.84p pd=2.84u as=0 ps=0 w=2u l=2u
X64 a_13505_648# a_11579_648.t15 VSS.t230 VSS.t7 nfet_03v3 ad=0.8p pd=2.8u as=1.22p ps=5.22u w=2u l=2u
X65 VDD.t162 VDD.t161 VDD.t162 VDD.t37 pfet_03v3 ad=1.3p pd=5.3u as=0 ps=0 w=2u l=2u
X66 VDD.t160 VDD.t159 VDD.t160 VDD.t1 pfet_03v3 ad=1.3p pd=5.3u as=0 ps=0 w=2u l=2u
X67 VDD.t158 VDD.t157 VDD.t158 VDD.t80 pfet_03v3 ad=1.3p pd=5.3u as=0 ps=0 w=2u l=2u
X68 VDD.t156 VDD.t155 VDD.t156 VDD.t53 pfet_03v3 ad=0.84p pd=2.84u as=0 ps=0 w=2u l=2u
X69 a_1816_2572# IBN.t8 ITN.t0 VSS.t20 nfet_03v3 ad=0.8p pd=2.8u as=1.22p ps=5.22u w=2u l=2u
X70 a_13505_2572# a_11579_648.t17 VSS.t8 VSS.t7 nfet_03v3 ad=0.8p pd=2.8u as=1.22p ps=5.22u w=2u l=2u
X71 a_412_3730# IBN.t9 a_n160_7781.t1 VSS.t19 nfet_03v3 ad=0.8p pd=2.8u as=1.22p ps=5.22u w=2u l=2u
X72 VSS.t187 VSS.t186 VSS.t187 VSS.t4 nfet_03v3 ad=0.8p pd=2.8u as=0 ps=0 w=2u l=2u
X73 VSS.t185 VSS.t184 VSS.t185 VSS.t46 nfet_03v3 ad=0.8p pd=2.8u as=0 ps=0 w=2u l=2u
X74 VSS.t183 VSS.t182 VSS.t183 VSS.t35 nfet_03v3 ad=0.8p pd=2.8u as=0 ps=0 w=2u l=2u
X75 VSS.t181 VSS.t180 VSS.t181 VSS.t3 nfet_03v3 ad=1.22p pd=5.22u as=0 ps=0 w=2u l=2u
X76 VSS.t179 VSS.t178 VSS.t179 VSS.t29 nfet_03v3 ad=1.22p pd=5.22u as=0 ps=0 w=2u l=2u
X77 a_1776_7781# a_n160_6615.t19 VDD.t227 VDD.t15 pfet_03v3 ad=0.84p pd=2.84u as=1.3p ps=5.3u w=2u l=2u
X78 VDD.t154 VDD.t153 VDD.t154 VDD.t142 pfet_03v3 ad=1.3p pd=5.3u as=0 ps=0 w=2u l=2u
X79 VDD.t152 VDD.t151 VDD.t152 VDD.t123 pfet_03v3 ad=1.3p pd=5.3u as=0 ps=0 w=2u l=2u
X80 VDD.t150 VDD.t148 VDD.t150 VDD.t149 pfet_03v3 ad=0.84p pd=2.84u as=0 ps=0 w=2u l=2u
X81 VA a_5850_6555.t8 a_7656_9713# VDD.t3 pfet_03v3 ad=1.3p pd=5.3u as=0.84p ps=2.84u w=2u l=2u
X82 VDD.t147 VDD.t146 VDD.t147 VDD.t75 pfet_03v3 ad=0.84p pd=2.84u as=0 ps=0 w=2u l=2u
X83 VSS.t177 VSS.t176 VSS.t177 VSS.t32 nfet_03v3 ad=1.22p pd=5.22u as=0 ps=0 w=2u l=2u
X84 a_6218_3730# a_n160_7781.t10 a_5696_3730.t0 VSS.t6 nfet_03v3 ad=0.8p pd=2.8u as=1.22p ps=5.22u w=2u l=2u
X85 ITN IBN.t10 a_412_1806# VSS.t18 nfet_03v3 ad=1.22p pd=5.22u as=0.8p ps=2.8u w=2u l=2u
X86 VDD.t145 VDD.t144 VDD.t145 VDD.t100 pfet_03v3 ad=0.84p pd=2.84u as=0 ps=0 w=2u l=2u
X87 VDD.t143 VDD.t141 VDD.t143 VDD.t142 pfet_03v3 ad=1.3p pd=5.3u as=0 ps=0 w=2u l=2u
X88 VDD.t140 VDD.t139 VDD.t140 VDD.t93 pfet_03v3 ad=0.84p pd=2.84u as=0 ps=0 w=2u l=2u
X89 VDD.t138 VDD.t137 VDD.t138 VDD.t100 pfet_03v3 ad=0.84p pd=2.84u as=0 ps=0 w=2u l=2u
X90 VSS.t175 VSS.t174 VSS.t175 VSS.t52 nfet_03v3 ad=0.8p pd=2.8u as=0 ps=0 w=2u l=2u
X91 VDD.t136 VDD.t135 VDD.t136 VDD.t37 pfet_03v3 ad=1.3p pd=5.3u as=0 ps=0 w=2u l=2u
X92 VDD.t134 VDD.t133 VDD.t134 VDD.t93 pfet_03v3 ad=0.84p pd=2.84u as=0 ps=0 w=2u l=2u
X93 VDD.t132 VDD.t131 VDD.t132 VDD.t53 pfet_03v3 ad=0.84p pd=2.84u as=0 ps=0 w=2u l=2u
X94 VSS.t173 VSS.t172 VSS.t173 VSS.t68 nfet_03v3 ad=0.8p pd=2.8u as=0 ps=0 w=2u l=2u
X95 VSS a_11579_648.t18 a_12101_2572# VSS.t13 nfet_03v3 ad=1.22p pd=5.22u as=0.8p ps=2.8u w=2u l=2u
X96 VDD.t130 VDD.t129 VDD.t130 VDD.t37 pfet_03v3 ad=1.3p pd=5.3u as=0 ps=0 w=2u l=2u
X97 a_7656_9713# a_5850_6555.t9 a_5696_648.t2 VDD.t4 pfet_03v3 ad=0.84p pd=2.84u as=1.3p ps=5.3u w=2u l=2u
X98 VDD.t128 VDD.t127 VDD.t128 VDD.t53 pfet_03v3 ad=0.84p pd=2.84u as=0 ps=0 w=2u l=2u
X99 VSS.t171 VSS.t170 VSS.t171 VSS.t49 nfet_03v3 ad=1.22p pd=5.22u as=0 ps=0 w=2u l=2u
X100 VDD.t126 VDD.t125 VDD.t126 VDD.t100 pfet_03v3 ad=0.84p pd=2.84u as=0 ps=0 w=2u l=2u
X101 VDD.t124 VDD.t122 VDD.t124 VDD.t123 pfet_03v3 ad=1.3p pd=5.3u as=0 ps=0 w=2u l=2u
X102 VSS.t169 VSS.t168 VSS.t169 VSS.t26 nfet_03v3 ad=0.8p pd=2.8u as=0 ps=0 w=2u l=2u
X103 IBN a_n160_7781.t12 a_6218_1806# VSS.t5 nfet_03v3 ad=1.22p pd=5.22u as=0.8p ps=2.8u w=2u l=2u
X104 VSS.t167 VSS.t166 VSS.t167 VSS.t1 nfet_03v3 ad=1.22p pd=5.22u as=0 ps=0 w=2u l=2u
X105 VDD.t121 VDD.t120 VDD.t121 VDD.t7 pfet_03v3 ad=0.84p pd=2.84u as=0 ps=0 w=2u l=2u
X106 a_412_2572# a_12_588.t2 a_n160_6615.t10 VSS.t19 nfet_03v3 ad=0.8p pd=2.8u as=1.22p ps=5.22u w=2u l=2u
X107 VSS.t165 VSS.t164 VSS.t165 VSS.t41 nfet_03v3 ad=1.22p pd=5.22u as=0 ps=0 w=2u l=2u
X108 a_7622_648# a_n160_7781.t13 a_12_588.t2 VSS.t3 nfet_03v3 ad=0.8p pd=2.8u as=1.22p ps=5.22u w=2u l=2u
X109 VSS.t163 VSS.t162 VSS.t163 VSS.t35 nfet_03v3 ad=0.8p pd=2.8u as=0 ps=0 w=2u l=2u
X110 IBP a_5850_6555.t10 a_7656_8547# VDD.t3 pfet_03v3 ad=1.3p pd=5.3u as=0.84p ps=2.84u w=2u l=2u
X111 VDD.t119 VDD.t118 VDD.t119 VDD.t75 pfet_03v3 ad=0.84p pd=2.84u as=0 ps=0 w=2u l=2u
X112 VSS.t161 VSS.t160 VSS.t161 VSS.t59 nfet_03v3 ad=1.22p pd=5.22u as=0 ps=0 w=2u l=2u
X113 VSS.t159 VSS.t158 VSS.t159 VSS.t23 nfet_03v3 ad=0.8p pd=2.8u as=0 ps=0 w=2u l=2u
X114 VSS.t157 VSS.t156 VSS.t157 VSS.t29 nfet_03v3 ad=1.22p pd=5.22u as=0 ps=0 w=2u l=2u
X115 VB a_5850_6555.t11 a_7656_6615# VDD.t3 pfet_03v3 ad=1.3p pd=5.3u as=0.84p ps=2.84u w=2u l=2u
X116 VDD.t117 VDD.t116 VDD.t117 VDD.t75 pfet_03v3 ad=0.84p pd=2.84u as=0 ps=0 w=2u l=2u
X117 VDD.t115 VDD.t114 VDD.t115 VDD.t40 pfet_03v3 ad=0.84p pd=2.84u as=0 ps=0 w=2u l=2u
X118 VSS.t155 VSS.t154 VSS.t155 VSS.t21 nfet_03v3 ad=0.8p pd=2.8u as=0 ps=0 w=2u l=2u
X119 a_6218_648# a_n160_7781.t14 a_5696_648.t0 VSS.t6 nfet_03v3 ad=0.8p pd=2.8u as=1.22p ps=5.22u w=2u l=2u
X120 VDD.t113 VDD.t112 VDD.t113 VDD.t100 pfet_03v3 ad=0.84p pd=2.84u as=0 ps=0 w=2u l=2u
X121 VSS.t153 VSS.t152 VSS.t153 VSS.t38 nfet_03v3 ad=1.22p pd=5.22u as=0 ps=0 w=2u l=2u
X122 VSS.t151 VSS.t150 VSS.t151 VSS.t0 nfet_03v3 ad=0.8p pd=2.8u as=0 ps=0 w=2u l=2u
X123 a_6218_2572# a_n160_7781.t15 VDD.t225 VSS.t6 nfet_03v3 ad=0.8p pd=2.8u as=1.22p ps=5.22u w=2u l=2u
X124 VSS.t149 VSS.t148 VSS.t149 VSS.t20 nfet_03v3 ad=1.22p pd=5.22u as=0 ps=0 w=2u l=2u
X125 VSS.t147 VSS.t146 VSS.t147 VSS.t7 nfet_03v3 ad=1.22p pd=5.22u as=0 ps=0 w=2u l=2u
X126 VDD.t111 VDD.t110 VDD.t111 VDD.t93 pfet_03v3 ad=0.84p pd=2.84u as=0 ps=0 w=2u l=2u
X127 VDD.t109 VDD.t108 VDD.t109 VDD.t37 pfet_03v3 ad=1.3p pd=5.3u as=0 ps=0 w=2u l=2u
X128 a_7656_8547# a_5850_6555.t12 VSS.t10 VDD.t4 pfet_03v3 ad=0.84p pd=2.84u as=1.3p ps=5.3u w=2u l=2u
X129 VDD.t107 VDD.t106 VDD.t107 VDD.t53 pfet_03v3 ad=0.84p pd=2.84u as=0 ps=0 w=2u l=2u
X130 VSS.t145 VSS.t144 VSS.t145 VSS.t41 nfet_03v3 ad=1.22p pd=5.22u as=0 ps=0 w=2u l=2u
X131 VSS.t143 VSS.t142 VSS.t143 VSS.t38 nfet_03v3 ad=1.22p pd=5.22u as=0 ps=0 w=2u l=2u
X132 VSS.t141 VSS.t140 VSS.t141 VSS.t46 nfet_03v3 ad=0.8p pd=2.8u as=0 ps=0 w=2u l=2u
X133 a_7656_6615# a_5850_6555.t13 a_5696_3730.t2 VDD.t4 pfet_03v3 ad=0.84p pd=2.84u as=1.3p ps=5.3u w=2u l=2u
X134 a_13536_9713# a_12_588.t3 ITP.t7 VDD.t6 pfet_03v3 ad=0.84p pd=2.84u as=1.3p ps=5.3u w=2u l=2u
X135 VDD.t105 VDD.t104 VDD.t105 VDD.t8 pfet_03v3 ad=0.84p pd=2.84u as=0 ps=0 w=2u l=2u
X136 VDD.t103 VDD.t102 VDD.t103 VDD.t9 pfet_03v3 ad=1.3p pd=5.3u as=0 ps=0 w=2u l=2u
X137 VDD.t101 VDD.t99 VDD.t101 VDD.t100 pfet_03v3 ad=0.84p pd=2.84u as=0 ps=0 w=2u l=2u
X138 VDD.t98 VDD.t97 VDD.t98 VDD.t3 pfet_03v3 ad=0.84p pd=2.84u as=0 ps=0 w=2u l=2u
X139 VDD.t96 VDD.t95 VDD.t96 VDD.t75 pfet_03v3 ad=0.84p pd=2.84u as=0 ps=0 w=2u l=2u
X140 VDD.t94 VDD.t92 VDD.t94 VDD.t93 pfet_03v3 ad=0.84p pd=2.84u as=0 ps=0 w=2u l=2u
X141 VDD.t91 VDD.t90 VDD.t91 VDD.t37 pfet_03v3 ad=1.3p pd=5.3u as=0 ps=0 w=2u l=2u
X142 VDD.t89 VDD.t88 VDD.t89 VDD.t40 pfet_03v3 ad=0.84p pd=2.84u as=0 ps=0 w=2u l=2u
X143 VDD.t87 VDD.t86 VDD.t87 VDD.t53 pfet_03v3 ad=0.84p pd=2.84u as=0 ps=0 w=2u l=2u
X144 VDD.t85 VDD.t84 VDD.t85 VDD.t40 pfet_03v3 ad=0.84p pd=2.84u as=0 ps=0 w=2u l=2u
X145 VSS.t139 VSS.t138 VSS.t139 VSS.t13 nfet_03v3 ad=0.8p pd=2.8u as=0 ps=0 w=2u l=2u
X146 VSS.t137 VSS.t136 VSS.t137 VSS.t26 nfet_03v3 ad=0.8p pd=2.8u as=0 ps=0 w=2u l=2u
X147 VSS.t135 VSS.t134 VSS.t135 VSS.t23 nfet_03v3 ad=0.8p pd=2.8u as=0 ps=0 w=2u l=2u
X148 VDD.t83 VDD.t82 VDD.t83 VDD.t15 pfet_03v3 ad=1.3p pd=5.3u as=0 ps=0 w=2u l=2u
X149 VDD.t81 VDD.t79 VDD.t81 VDD.t80 pfet_03v3 ad=1.3p pd=5.3u as=0 ps=0 w=2u l=2u
X150 VDD.t78 VDD.t77 VDD.t78 VDD.t4 pfet_03v3 ad=1.3p pd=5.3u as=0 ps=0 w=2u l=2u
X151 VSS.t133 VSS.t132 VSS.t133 VSS.t19 nfet_03v3 ad=1.22p pd=5.22u as=0 ps=0 w=2u l=2u
X152 VSS.t131 VSS.t130 VSS.t131 VSS.t46 nfet_03v3 ad=0.8p pd=2.8u as=0 ps=0 w=2u l=2u
X153 VDD a_n160_7781.t16 a_7622_1806# VSS.t4 nfet_03v3 ad=1.22p pd=5.22u as=0.8p ps=2.8u w=2u l=2u
X154 VSS.t129 VSS.t128 VSS.t129 VSS.t41 nfet_03v3 ad=1.22p pd=5.22u as=0 ps=0 w=2u l=2u
X155 VSS.t127 VSS.t126 VSS.t127 VSS.t38 nfet_03v3 ad=1.22p pd=5.22u as=0 ps=0 w=2u l=2u
X156 VSS.t125 VSS.t124 VSS.t125 VSS.t35 nfet_03v3 ad=0.8p pd=2.8u as=0 ps=0 w=2u l=2u
X157 IBP a_5850_6555.t14 a_7656_7781# VDD.t3 pfet_03v3 ad=1.3p pd=5.3u as=0.84p ps=2.84u w=2u l=2u
X158 VDD.t76 VDD.t74 VDD.t76 VDD.t75 pfet_03v3 ad=0.84p pd=2.84u as=0 ps=0 w=2u l=2u
X159 a_13536_8547# IBP.t8 ITP.t1 VDD.t6 pfet_03v3 ad=0.84p pd=2.84u as=1.3p ps=5.3u w=2u l=2u
X160 a_13536_6615# IBP.t9 ITP.t2 VDD.t6 pfet_03v3 ad=0.84p pd=2.84u as=1.3p ps=5.3u w=2u l=2u
X161 a_7622_1806# a_n160_7781.t17 IBN.t0 VSS.t3 nfet_03v3 ad=0.8p pd=2.8u as=1.22p ps=5.22u w=2u l=2u
X162 VSS.t123 VSS.t122 VSS.t123 VSS.t29 nfet_03v3 ad=1.22p pd=5.22u as=0 ps=0 w=2u l=2u
X163 VSS.t121 VSS.t120 VSS.t121 VSS.t68 nfet_03v3 ad=0.8p pd=2.8u as=0 ps=0 w=2u l=2u
X164 VSS.t119 VSS.t118 VSS.t119 VSS.t32 nfet_03v3 ad=1.22p pd=5.22u as=0 ps=0 w=2u l=2u
X165 VSS.t117 VSS.t116 VSS.t117 VSS.t6 nfet_03v3 ad=1.22p pd=5.22u as=0 ps=0 w=2u l=2u
X166 ITN a_12_588.t4 a_412_648# VSS.t18 nfet_03v3 ad=1.22p pd=5.22u as=0.8p ps=2.8u w=2u l=2u
X167 VDD.t73 VDD.t72 VDD.t73 VDD.t7 pfet_03v3 ad=0.84p pd=2.84u as=0 ps=0 w=2u l=2u
X168 VDD.t71 VDD.t70 VDD.t71 VDD.t40 pfet_03v3 ad=0.84p pd=2.84u as=0 ps=0 w=2u l=2u
X169 a_7656_7781# a_5850_6555.t15 VSS.t2 VDD.t4 pfet_03v3 ad=0.84p pd=2.84u as=1.3p ps=5.3u w=2u l=2u
X170 VDD.t69 VDD.t68 VDD.t69 VDD.t6 pfet_03v3 ad=1.3p pd=5.3u as=0 ps=0 w=2u l=2u
X171 ITN IBN.t11 a_412_3730# VSS.t18 nfet_03v3 ad=1.22p pd=5.22u as=0.8p ps=2.8u w=2u l=2u
X172 VSS.t115 VSS.t114 VSS.t115 VSS.t59 nfet_03v3 ad=1.22p pd=5.22u as=0 ps=0 w=2u l=2u
X173 a_6250_9713# a_5850_6555.t16 VB.t1 VDD.t1 pfet_03v3 ad=0.84p pd=2.84u as=1.3p ps=5.3u w=2u l=2u
X174 VSS.t113 VSS.t112 VSS.t113 VSS.t26 nfet_03v3 ad=0.8p pd=2.8u as=0 ps=0 w=2u l=2u
X175 VSS.t111 VSS.t110 VSS.t111 VSS.t21 nfet_03v3 ad=0.8p pd=2.8u as=0 ps=0 w=2u l=2u
X176 VSS.t109 VSS.t108 VSS.t109 VSS.t23 nfet_03v3 ad=0.8p pd=2.8u as=0 ps=0 w=2u l=2u
X177 VSS.t107 VSS.t106 VSS.t107 VSS.t52 nfet_03v3 ad=0.8p pd=2.8u as=0 ps=0 w=2u l=2u
X178 VSS.t105 VSS.t104 VSS.t105 VSS.t20 nfet_03v3 ad=1.22p pd=5.22u as=0 ps=0 w=2u l=2u
X179 VSS.t103 VSS.t102 VSS.t103 VSS.t0 nfet_03v3 ad=0.8p pd=2.8u as=0 ps=0 w=2u l=2u
X180 VSS.t101 VSS.t100 VSS.t101 VSS.t49 nfet_03v3 ad=1.22p pd=5.22u as=0 ps=0 w=2u l=2u
X181 VDD.t67 VDD.t66 VDD.t67 VDD.t6 pfet_03v3 ad=1.3p pd=5.3u as=0 ps=0 w=2u l=2u
X182 VSS.t99 VSS.t98 VSS.t99 VSS.t7 nfet_03v3 ad=1.22p pd=5.22u as=0 ps=0 w=2u l=2u
X183 a_12101_1806# a_11579_648.t19 a_5850_6555.t7 VSS.t1 nfet_03v3 ad=0.8p pd=2.8u as=1.22p ps=5.22u w=2u l=2u
X184 VDD.t65 VDD.t64 VDD.t65 VDD.t40 pfet_03v3 ad=0.84p pd=2.84u as=0 ps=0 w=2u l=2u
X185 VSS.t97 VSS.t96 VSS.t97 VSS.t46 nfet_03v3 ad=0.8p pd=2.8u as=0 ps=0 w=2u l=2u
X186 VSS.t95 VSS.t94 VSS.t95 VSS.t59 nfet_03v3 ad=1.22p pd=5.22u as=0 ps=0 w=2u l=2u
X187 VDD.t63 VDD.t62 VDD.t63 VDD.t24 pfet_03v3 ad=1.3p pd=5.3u as=0 ps=0 w=2u l=2u
X188 a_370_9713# a_n160_6615.t20 a_n160_7781.t6 VDD.t9 pfet_03v3 ad=0.84p pd=2.84u as=1.3p ps=5.3u w=2u l=2u
X189 a_6250_8547# a_5850_6555.t18 IBP.t1 VDD.t1 pfet_03v3 ad=0.84p pd=2.84u as=1.3p ps=5.3u w=2u l=2u
X190 VSS.t93 VSS.t92 VSS.t93 VSS.t41 nfet_03v3 ad=1.22p pd=5.22u as=0 ps=0 w=2u l=2u
X191 VSS.t91 VSS.t90 VSS.t91 VSS.t38 nfet_03v3 ad=1.22p pd=5.22u as=0 ps=0 w=2u l=2u
X192 a_6250_6615# a_5850_6555.t19 VA.t1 VDD.t1 pfet_03v3 ad=0.84p pd=2.84u as=1.3p ps=5.3u w=2u l=2u
X193 a_13536_7781# a_12_588.t3 ITP.t5 VDD.t6 pfet_03v3 ad=0.84p pd=2.84u as=1.3p ps=5.3u w=2u l=2u
X194 ITN a_12_588.t2 a_412_2572# VSS.t18 nfet_03v3 ad=1.22p pd=5.22u as=0.8p ps=2.8u w=2u l=2u
X195 VDD a_n160_6615.t21 a_370_9713# VDD.t10 pfet_03v3 ad=1.3p pd=5.3u as=0.84p ps=2.84u w=2u l=2u
X196 VSS.t89 VSS.t88 VSS.t89 VSS.t13 nfet_03v3 ad=0.8p pd=2.8u as=0 ps=0 w=2u l=2u
X197 VDD.t61 VDD.t60 VDD.t61 VDD.t21 pfet_03v3 ad=1.3p pd=5.3u as=0 ps=0 w=2u l=2u
X198 a_12130_9713# IBP.t10 a_5850_6555.t0 VDD.t5 pfet_03v3 ad=0.84p pd=2.84u as=1.3p ps=5.3u w=2u l=2u
X199 VSS.t87 VSS.t86 VSS.t87 VSS.t52 nfet_03v3 ad=0.8p pd=2.8u as=0 ps=0 w=2u l=2u
X200 VSS a_5850_6555.t20 a_6250_8547# VDD.t2 pfet_03v3 ad=1.3p pd=5.3u as=0.84p ps=2.84u w=2u l=2u
X201 VSS.t85 VSS.t84 VSS.t85 VSS.t49 nfet_03v3 ad=1.22p pd=5.22u as=0 ps=0 w=2u l=2u
X202 VDD.t59 VDD.t58 VDD.t59 VDD.t3 pfet_03v3 ad=0.84p pd=2.84u as=0 ps=0 w=2u l=2u
X203 VSS.t83 VSS.t82 VSS.t83 VSS.t19 nfet_03v3 ad=1.22p pd=5.22u as=0 ps=0 w=2u l=2u
X204 IBN a_n160_7781.t19 a_6218_2572# VSS.t5 nfet_03v3 ad=1.22p pd=5.22u as=0.8p ps=2.8u w=2u l=2u
X205 VSS.t81 VSS.t80 VSS.t81 VSS.t35 nfet_03v3 ad=0.8p pd=2.8u as=0 ps=0 w=2u l=2u
X206 VDD.t57 VDD.t55 VDD.t57 VDD.t56 pfet_03v3 ad=0.84p pd=2.84u as=0 ps=0 w=2u l=2u
X207 VSS.t79 VSS.t78 VSS.t79 VSS.t29 nfet_03v3 ad=1.22p pd=5.22u as=0 ps=0 w=2u l=2u
X208 VDD.t54 VDD.t52 VDD.t54 VDD.t53 pfet_03v3 ad=0.84p pd=2.84u as=0 ps=0 w=2u l=2u
X209 VSS.t77 VSS.t76 VSS.t77 VSS.t26 nfet_03v3 ad=0.8p pd=2.8u as=0 ps=0 w=2u l=2u
X210 VSS.t75 VSS.t74 VSS.t75 VSS.t23 nfet_03v3 ad=0.8p pd=2.8u as=0 ps=0 w=2u l=2u
X211 VSS.t73 VSS.t72 VSS.t73 VSS.t68 nfet_03v3 ad=0.8p pd=2.8u as=0 ps=0 w=2u l=2u
X212 VSS.t71 VSS.t70 VSS.t71 VSS.t6 nfet_03v3 ad=1.22p pd=5.22u as=0 ps=0 w=2u l=2u
X213 a_370_8547# a_n160_6615.t2 a_n160_6615.t3 VDD.t9 pfet_03v3 ad=0.84p pd=2.84u as=1.3p ps=5.3u w=2u l=2u
X214 a_370_6615# a_n160_6615.t4 a_n160_6615.t5 VDD.t9 pfet_03v3 ad=0.84p pd=2.84u as=1.3p ps=5.3u w=2u l=2u
X215 VDD.t51 VDD.t50 VDD.t51 VDD.t1 pfet_03v3 ad=1.3p pd=5.3u as=0 ps=0 w=2u l=2u
X216 VDD a_n160_6615.t22 a_370_8547# VDD.t10 pfet_03v3 ad=1.3p pd=5.3u as=0.84p ps=2.84u w=2u l=2u
X217 VDD.t49 VDD.t48 VDD.t49 VDD.t21 pfet_03v3 ad=1.3p pd=5.3u as=0 ps=0 w=2u l=2u
X218 VDD a_n160_6615.t23 a_370_6615# VDD.t10 pfet_03v3 ad=1.3p pd=5.3u as=0.84p ps=2.84u w=2u l=2u
X219 a_12130_8547# a_12_588.t3 a_11579_648.t0 VDD.t5 pfet_03v3 ad=0.84p pd=2.84u as=1.3p ps=5.3u w=2u l=2u
X220 VSS.t69 VSS.t67 VSS.t69 VSS.t68 nfet_03v3 ad=0.8p pd=2.8u as=0 ps=0 w=2u l=2u
X221 VSS.t66 VSS.t65 VSS.t66 VSS.t52 nfet_03v3 ad=0.8p pd=2.8u as=0 ps=0 w=2u l=2u
X222 VDD.t47 VDD.t46 VDD.t47 VDD.t10 pfet_03v3 ad=0.84p pd=2.84u as=0 ps=0 w=2u l=2u
X223 VDD.t45 VDD.t44 VDD.t45 VDD.t21 pfet_03v3 ad=1.3p pd=5.3u as=0 ps=0 w=2u l=2u
X224 a_12130_6615# a_12_588.t3 a_11579_648.t0 VDD.t5 pfet_03v3 ad=0.84p pd=2.84u as=1.3p ps=5.3u w=2u l=2u
X225 VSS.t64 VSS.t63 VSS.t64 VSS.t32 nfet_03v3 ad=1.22p pd=5.22u as=0 ps=0 w=2u l=2u
X226 VDD.t43 VDD.t42 VDD.t43 VDD.t2 pfet_03v3 ad=0.84p pd=2.84u as=0 ps=0 w=2u l=2u
X227 a_7622_3730# a_n160_7781.t21 a_12_588.t2 VSS.t3 nfet_03v3 ad=0.8p pd=2.8u as=1.22p ps=5.22u w=2u l=2u
X228 VDD.t41 VDD.t39 VDD.t41 VDD.t40 pfet_03v3 ad=0.84p pd=2.84u as=0 ps=0 w=2u l=2u
X229 VSS.t62 VSS.t61 VSS.t62 VSS.t49 nfet_03v3 ad=1.22p pd=5.22u as=0 ps=0 w=2u l=2u
X230 a_6250_7781# a_5850_6555.t22 IBP.t2 VDD.t1 pfet_03v3 ad=0.84p pd=2.84u as=1.3p ps=5.3u w=2u l=2u
X231 VSS.t60 VSS.t58 VSS.t60 VSS.t59 nfet_03v3 ad=1.22p pd=5.22u as=0 ps=0 w=2u l=2u
X232 VSS.t57 VSS.t56 VSS.t57 VSS.t32 nfet_03v3 ad=1.22p pd=5.22u as=0 ps=0 w=2u l=2u
X233 VDD.t38 VDD.t36 VDD.t38 VDD.t37 pfet_03v3 ad=1.3p pd=5.3u as=0 ps=0 w=2u l=2u
X234 VSS.t55 VSS.t54 VSS.t55 VSS.t18 nfet_03v3 ad=0.8p pd=2.8u as=0 ps=0 w=2u l=2u
X235 VDD.t35 VDD.t34 VDD.t35 VDD.t9 pfet_03v3 ad=1.3p pd=5.3u as=0 ps=0 w=2u l=2u
X236 VSS.t53 VSS.t51 VSS.t53 VSS.t52 nfet_03v3 ad=0.8p pd=2.8u as=0 ps=0 w=2u l=2u
X237 VSS a_5850_6555.t23 a_6250_7781# VDD.t2 pfet_03v3 ad=1.3p pd=5.3u as=0.84p ps=2.84u w=2u l=2u
X238 a_1816_1806# a_12_588.t2 ITN.t4 VSS.t20 nfet_03v3 ad=0.8p pd=2.8u as=1.22p ps=5.22u w=2u l=2u
X239 a_13505_1806# a_11579_648.t21 VSS.t11 VSS.t7 nfet_03v3 ad=0.8p pd=2.8u as=1.22p ps=5.22u w=2u l=2u
X240 VSS.t50 VSS.t48 VSS.t50 VSS.t49 nfet_03v3 ad=1.22p pd=5.22u as=0 ps=0 w=2u l=2u
X241 VDD.t33 VDD.t32 VDD.t33 VDD.t10 pfet_03v3 ad=0.84p pd=2.84u as=0 ps=0 w=2u l=2u
X242 VDD.t31 VDD.t30 VDD.t31 VDD.t21 pfet_03v3 ad=1.3p pd=5.3u as=0 ps=0 w=2u l=2u
X243 VDD.t29 VDD.t28 VDD.t29 VDD.t5 pfet_03v3 ad=1.3p pd=5.3u as=0 ps=0 w=2u l=2u
X244 VDD.t27 VDD.t26 VDD.t27 VDD.t5 pfet_03v3 ad=1.3p pd=5.3u as=0 ps=0 w=2u l=2u
X245 VSS.t47 VSS.t45 VSS.t47 VSS.t46 nfet_03v3 ad=0.8p pd=2.8u as=0 ps=0 w=2u l=2u
X246 VSS.t44 VSS.t43 VSS.t44 VSS.t5 nfet_03v3 ad=0.8p pd=2.8u as=0 ps=0 w=2u l=2u
X247 VSS.t42 VSS.t40 VSS.t42 VSS.t41 nfet_03v3 ad=1.22p pd=5.22u as=0 ps=0 w=2u l=2u
X248 VSS.t39 VSS.t37 VSS.t39 VSS.t38 nfet_03v3 ad=1.22p pd=5.22u as=0 ps=0 w=2u l=2u
X249 a_12101_3730# a_11579_648.t22 a_5850_6555.t5 VSS.t1 nfet_03v3 ad=0.8p pd=2.8u as=1.22p ps=5.22u w=2u l=2u
X250 VDD a_n160_7781.t22 a_7622_2572# VSS.t4 nfet_03v3 ad=1.22p pd=5.22u as=0.8p ps=2.8u w=2u l=2u
X251 a_7622_2572# a_n160_7781.t23 IBN.t1 VSS.t3 nfet_03v3 ad=0.8p pd=2.8u as=1.22p ps=5.22u w=2u l=2u
X252 a_370_7781# a_n160_6615.t24 a_n160_7781.t7 VDD.t9 pfet_03v3 ad=0.84p pd=2.84u as=1.3p ps=5.3u w=2u l=2u
X253 VDD.t25 VDD.t23 VDD.t25 VDD.t24 pfet_03v3 ad=1.3p pd=5.3u as=0 ps=0 w=2u l=2u
X254 VSS a_11579_648.t23 a_12101_648# VSS.t13 nfet_03v3 ad=1.22p pd=5.22u as=0.8p ps=2.8u w=2u l=2u
X255 VSS.t36 VSS.t34 VSS.t36 VSS.t35 nfet_03v3 ad=0.8p pd=2.8u as=0 ps=0 w=2u l=2u
X256 VDD a_n160_6615.t25 a_370_7781# VDD.t10 pfet_03v3 ad=1.3p pd=5.3u as=0.84p ps=2.84u w=2u l=2u
X257 VSS.t33 VSS.t31 VSS.t33 VSS.t32 nfet_03v3 ad=1.22p pd=5.22u as=0 ps=0 w=2u l=2u
X258 VDD.t22 VDD.t20 VDD.t22 VDD.t21 pfet_03v3 ad=1.3p pd=5.3u as=0 ps=0 w=2u l=2u
X259 VDD.t19 VDD.t18 VDD.t19 VDD.t4 pfet_03v3 ad=1.3p pd=5.3u as=0 ps=0 w=2u l=2u
X260 a_12130_7781# IBP.t11 a_5850_6555.t3 VDD.t5 pfet_03v3 ad=0.84p pd=2.84u as=1.3p ps=5.3u w=2u l=2u
X261 VSS a_11579_648.t24 a_12101_1806# VSS.t13 nfet_03v3 ad=1.22p pd=5.22u as=0.8p ps=2.8u w=2u l=2u
X262 a_412_648# a_12_588.t4 a_n160_6615.t11 VSS.t19 nfet_03v3 ad=0.8p pd=2.8u as=1.22p ps=5.22u w=2u l=2u
X263 VSS.t30 VSS.t28 VSS.t30 VSS.t29 nfet_03v3 ad=1.22p pd=5.22u as=0 ps=0 w=2u l=2u
X264 VSS.t27 VSS.t25 VSS.t27 VSS.t26 nfet_03v3 ad=0.8p pd=2.8u as=0 ps=0 w=2u l=2u
X265 VSS.t24 VSS.t22 VSS.t24 VSS.t23 nfet_03v3 ad=0.8p pd=2.8u as=0 ps=0 w=2u l=2u
R0 IBP.n21 IBP.n20 9.90372
R1 IBP.n14 IBP.t8 8.44198
R2 IBP.n14 IBP.t6 8.44198
R3 IBP.n2 IBP.t9 8.44198
R4 IBP.n2 IBP.t7 8.44198
R5 IBP.n13 IBP.t10 8.10925
R6 IBP.n5 IBP.t11 8.10925
R7 IBP.n18 IBP.t4 8.10567
R8 IBP.n8 IBP.t5 8.10567
R9 IBP.n22 IBP.n1 4.84877
R10 IBP.n19 IBP.n18 4.63432
R11 IBP.n9 IBP.n8 4.63432
R12 IBP.n1 IBP.t1 3.65383
R13 IBP.n23 IBP.n0 3.65146
R14 IBP.n1 IBP.t2 3.57094
R15 IBP IBP.n24 3.4916
R16 IBP.n20 IBP.n19 3.37487
R17 IBP.n10 IBP.n9 3.37487
R18 IBP.n22 IBP.n21 3.11372
R19 IBP.n3 IBP.n2 2.86385
R20 IBP.n15 IBP.n14 2.85082
R21 IBP.n23 IBP.n22 2.71171
R22 IBP.n17 IBP.n16 2.3531
R23 IBP.n7 IBP.n6 2.34007
R24 IBP.n10 IBP.n3 2.30075
R25 IBP.n16 IBP.n13 2.28392
R26 IBP.n6 IBP.n5 2.2709
R27 IBP.n17 IBP.n12 2.25205
R28 IBP.n7 IBP.n4 2.25205
R29 IBP.n15 IBP.n11 2.2505
R30 IBP.n13 IBP.n12 2.09285
R31 IBP.n5 IBP.n4 2.09285
R32 IBP.n16 IBP.n15 1.28862
R33 IBP.n6 IBP.n3 1.28862
R34 IBP.n11 IBP.n10 0.670625
R35 IBP.n21 IBP 0.372239
R36 IBP.n19 IBP.n12 0.234207
R37 IBP.n9 IBP.n4 0.234207
R38 IBP IBP.n23 0.0822105
R39 IBP.n20 IBP.n11 0.054875
R40 IBP.n18 IBP.n17 0.00997368
R41 IBP.n8 IBP.n7 0.00997368
R42 ITP.n9 ITP.t7 6.54387
R43 ITP.n1 ITP.t2 6.39955
R44 ITP.n1 ITP.n0 5.83655
R45 ITP.n7 ITP.n1 4.03827
R46 ITP.n5 ITP.n3 3.73554
R47 ITP.n2 ITP.t1 3.73554
R48 ITP.n5 ITP.n4 3.57923
R49 ITP.n2 ITP.t5 3.57923
R50 ITP ITP.n10 3.48212
R51 ITP.n7 ITP.n6 3.45552
R52 ITP.n9 ITP.n8 3.35988
R53 ITP.n6 ITP.n2 2.58435
R54 ITP ITP.n9 2.51007
R55 ITP.n6 ITP.n5 2.22754
R56 ITP.n8 ITP.n7 0.780125
R57 ITP.n8 ITP 0.4175
R58 VDD.n178 VDD.n21 477.971
R59 VDD.n88 VDD.n46 477.971
R60 VDD.n217 VDD.n10 477.971
R61 VDD.n175 VDD.n5 470.842
R62 VDD.n83 VDD.n27 470.842
R63 VDD.n213 VDD.n9 470.842
R64 VDD.n178 VDD.n5 470.842
R65 VDD.n88 VDD.n27 470.842
R66 VDD.n213 VDD.n10 470.842
R67 VDD.n175 VDD.n21 469.683
R68 VDD.n83 VDD.n46 469.683
R69 VDD.n217 VDD.n9 469.683
R70 VDD.t7 VDD.t123 142.93
R71 VDD.t5 VDD.t53 142.93
R72 VDD.t80 VDD.t3 142.93
R73 VDD.t1 VDD.t100 142.93
R74 VDD.t21 VDD.t149 142.93
R75 VDD.t9 VDD.t93 142.93
R76 VDD.t123 VDD.t40 96.8792
R77 VDD.t6 VDD.t7 96.8792
R78 VDD.t8 VDD.t5 96.8792
R79 VDD.t53 VDD.t142 96.8792
R80 VDD.t75 VDD.t80 96.8792
R81 VDD.t3 VDD.t4 96.8792
R82 VDD.t2 VDD.t1 96.8792
R83 VDD.t100 VDD.t24 96.8792
R84 VDD.t56 VDD.t21 96.8792
R85 VDD.t149 VDD.t15 96.8792
R86 VDD.t10 VDD.t9 96.8792
R87 VDD.t93 VDD.t37 96.8792
R88 VDD.t40 VDD.n46 81.1238
R89 VDD.t37 VDD.n213 81.1238
R90 VDD.t142 VDD.n86 81.017
R91 VDD.n85 VDD.t75 81.017
R92 VDD.t24 VDD.n11 81.017
R93 VDD.n216 VDD.t56 81.017
R94 VDD.n84 VDD.t6 70.2717
R95 VDD.n176 VDD.t4 70.2717
R96 VDD.t15 VDD.n215 70.2717
R97 VDD.n87 VDD.t8 64.1315
R98 VDD.n177 VDD.t2 64.1315
R99 VDD.n214 VDD.t10 64.1315
R100 VDD.n86 VDD.n85 24.5613
R101 VDD.n216 VDD.n11 24.5613
R102 VDD.n87 VDD.n84 8.52856
R103 VDD.n177 VDD.n176 8.52856
R104 VDD.n215 VDD.n214 8.52856
R105 VDD.n225 VDD.t211 8.10567
R106 VDD.n225 VDD.t55 8.10567
R107 VDD.n222 VDD.t60 8.10567
R108 VDD.n222 VDD.t221 8.10567
R109 VDD.n221 VDD.t48 8.10567
R110 VDD.n221 VDD.t209 8.10567
R111 VDD.n185 VDD.t20 8.10567
R112 VDD.n185 VDD.t163 8.10567
R113 VDD.n186 VDD.t44 8.10567
R114 VDD.n186 VDD.t205 8.10567
R115 VDD.n190 VDD.t30 8.10567
R116 VDD.n190 VDD.t183 8.10567
R117 VDD.n225 VDD.t62 8.10567
R118 VDD.n225 VDD.t125 8.10567
R119 VDD.n222 VDD.t23 8.10567
R120 VDD.n222 VDD.t169 8.10567
R121 VDD.n221 VDD.t217 8.10567
R122 VDD.n221 VDD.t144 8.10567
R123 VDD.n185 VDD.t179 8.10567
R124 VDD.n185 VDD.t99 8.10567
R125 VDD.n186 VDD.t215 8.10567
R126 VDD.n186 VDD.t137 8.10567
R127 VDD.n190 VDD.t197 8.10567
R128 VDD.n190 VDD.t112 8.10567
R129 VDD.n170 VDD.t159 8.10567
R130 VDD.n121 VDD.t189 8.10567
R131 VDD.n22 VDD.t18 8.10567
R132 VDD.n117 VDD.t58 8.10567
R133 VDD.n125 VDD.t102 8.10567
R134 VDD.n123 VDD.t46 8.10567
R135 VDD.n164 VDD.t82 8.10567
R136 VDD.n122 VDD.t148 8.10567
R137 VDD.n132 VDD.t36 8.10567
R138 VDD.n132 VDD.t207 8.10567
R139 VDD.n130 VDD.t161 8.10567
R140 VDD.n130 VDD.t165 8.10567
R141 VDD.n129 VDD.t135 8.10567
R142 VDD.n129 VDD.t139 8.10567
R143 VDD.n210 VDD.t90 8.10567
R144 VDD.n210 VDD.t92 8.10567
R145 VDD.n209 VDD.t129 8.10567
R146 VDD.n209 VDD.t133 8.10567
R147 VDD.n207 VDD.t108 8.10567
R148 VDD.n207 VDD.t110 8.10567
R149 VDD.n78 VDD.t28 8.10567
R150 VDD.n77 VDD.t104 8.10567
R151 VDD.n47 VDD.t68 8.10567
R152 VDD.n73 VDD.t120 8.10567
R153 VDD.n70 VDD.t191 8.10567
R154 VDD.n70 VDD.t39 8.10567
R155 VDD.n68 VDD.t199 8.10567
R156 VDD.n68 VDD.t114 8.10567
R157 VDD.n67 VDD.t175 8.10567
R158 VDD.n67 VDD.t88 8.10567
R159 VDD.n63 VDD.t122 8.10567
R160 VDD.n63 VDD.t64 8.10567
R161 VDD.n62 VDD.t173 8.10567
R162 VDD.n62 VDD.t84 8.10567
R163 VDD.n60 VDD.t151 8.10567
R164 VDD.n60 VDD.t70 8.10567
R165 VDD.n44 VDD.t26 8.10567
R166 VDD.n91 VDD.t187 8.10567
R167 VDD.n55 VDD.t66 8.10567
R168 VDD.n54 VDD.t72 8.10567
R169 VDD.n19 VDD.t50 8.10567
R170 VDD.n181 VDD.t42 8.10567
R171 VDD.n32 VDD.t77 8.10567
R172 VDD.n35 VDD.t97 8.10567
R173 VDD.n112 VDD.t79 8.10567
R174 VDD.n112 VDD.t177 8.10567
R175 VDD.n109 VDD.t219 8.10567
R176 VDD.n109 VDD.t146 8.10567
R177 VDD.n108 VDD.t203 8.10567
R178 VDD.n108 VDD.t118 8.10567
R179 VDD.n102 VDD.t157 8.10567
R180 VDD.n102 VDD.t74 8.10567
R181 VDD.n101 VDD.t201 8.10567
R182 VDD.n101 VDD.t116 8.10567
R183 VDD.n98 VDD.t181 8.10567
R184 VDD.n98 VDD.t95 8.10567
R185 VDD.n112 VDD.t141 8.10567
R186 VDD.n112 VDD.t52 8.10567
R187 VDD.n109 VDD.t213 8.10567
R188 VDD.n109 VDD.t155 8.10567
R189 VDD.n108 VDD.t195 8.10567
R190 VDD.n108 VDD.t131 8.10567
R191 VDD.n102 VDD.t153 8.10567
R192 VDD.n102 VDD.t86 8.10567
R193 VDD.n101 VDD.t193 8.10567
R194 VDD.n101 VDD.t127 8.10567
R195 VDD.n98 VDD.t167 8.10567
R196 VDD.n98 VDD.t106 8.10567
R197 VDD.n17 VDD.t34 8.10567
R198 VDD.n202 VDD.t32 8.10567
R199 VDD.n18 VDD.t171 8.10567
R200 VDD.n196 VDD.t185 8.10567
R201 VDD.n42 VDD.n41 5.76894
R202 VDD.n41 VDD.n40 5.33948
R203 VDD.n154 VDD.n153 4.61205
R204 VDD.n143 VDD.n142 4.61205
R205 VDD.n42 VDD.n36 4.57315
R206 VDD.n43 VDD.n42 4.56231
R207 VDD.n147 VDD.n145 4.5005