* NGSPICE file created from SAR_logic_dac.ext - technology: gf180mcuD

.subckt SAR_logic_dac CK_1 VDP VDN Set Reset clks D Valid vocp VCM VDDD out_11 out_10
+ out_1 out_9 out_2 out_8 out_3 out_7 out_4 out_6 out_5 VSSD
X0 a_39352_10796.t0 a_37288_11028.t2 a_41964_10796.t0 VDDD.t21 pfet_03v3 ad=2.535p pd=9.1u as=2.535p ps=9.1u w=3.9u l=0.28u
X1 SAR_Asynchronous_top_neg_logic_0/SAR_Asynchronous_top_0/SAR_Asynchronous_Logic_integration_0/SAR_Asynchronous_Logic_8/D_reset_FF_0.nQ SAR_Asynchronous_top_neg_logic_0/SAR_Asynchronous_top_0/SAR_Asynchronous_Logic_integration_0/SAR_Asynchronous_Logic_8/D_reset_FF_0.Q.t3 VDDD.t16 VDDD.t15 pfet_03v3 ad=2.535p pd=9.1u as=2.535p ps=9.1u w=3.9u l=0.28u
X2 SAR_Asynchronous_top_neg_logic_0/SAR_Asynchronous_top_0/SAR_Asynchronous_Logic_integration_0/SAR_Asynchronous_Logic_9/D_reset_FF_0.Q.t0 a_47520_n7312.t4 a_48644_n6052# VDDD.t12 pfet_03v3 ad=2.535p pd=9.1u as=2.535p ps=9.1u w=3.9u l=0.28u
X3 a_n60504_11030.t0 a_n60570_11594.t5 VDDD.t7 VDDD.t6 pfet_03v3 ad=2.535p pd=9.1u as=2.535p ps=9.1u w=3.9u l=0.28u
X4 a_n29810_n3108.t1 a_n29878_n2740.t2 VCM.t8 VSSD.t434 nfet_03v3 ad=0.9516p pd=4.34u as=0.9516p ps=4.34u w=1.56u l=0.28u
X5 a_n31752_n40600.t1 a_n32888_n40380.t2 a_n29338_n40380# VSSD.t237 nfet_03v3 ad=0.9516p pd=4.34u as=0.9516p ps=4.34u w=1.56u l=0.28u
X6 VSSD.t792 a_n18580_10796# SAR_Asynchronous_top_neg_logic_0/SAR_Asynchronous_top_0/SAR_Asynchronous_Logic_integration_0/SAR_Asynchronous_Logic_1/D_reset_FF_1.Q.t4 VSSD.t791 nfet_03v3 ad=0.9516p pd=4.34u as=0.9516p ps=4.34u w=1.56u l=0.28u
X7 a_11088_n1944# a_8090_n1944# SAR_Asynchronous_top_neg_logic_0/SAR_Asynchronous_top_0/SAR_Asynchronous_Logic_integration_0/SAR_Asynchronous_Logic_8/D_reset_FF_1.Q.t4 VDDD.t577 pfet_03v3 ad=2.535p pd=9.1u as=2.535p ps=9.1u w=3.9u l=0.28u
X8 a_n28504_11030.t0 a_n44820_n28246.t5 VDDD.t200 VDDD.t199 pfet_03v3 ad=2.535p pd=9.1u as=2.535p ps=9.1u w=3.9u l=0.28u
X9 a_40336_12056# Set.t0 VDDD.t150 VDDD.t149 pfet_03v3 ad=2.535p pd=9.1u as=2.535p ps=9.1u w=3.9u l=0.28u
X10 a_14304_n3204.t4 a_8208_n2082.t2 a_14118_n1944.t2 VSSD.t340 nfet_03v3 ad=0.9516p pd=4.34u as=0.9516p ps=4.34u w=1.56u l=0.28u
X11 VSSD.t337 a_76828_n3204.t5 a_78304_n3204.t1 VSSD.t336 nfet_03v3 ad=0.9516p pd=4.34u as=0.9516p ps=4.34u w=1.56u l=0.28u
X12 SAR_Asynchronous_top_neg_logic_0/SAR_Asynchronous_top_0/SAR_Asynchronous_Logic_integration_0/SAR_Asynchronous_Logic_2/D_reset_FF_0.nQ SAR_Asynchronous_top_neg_logic_0/SAR_Asynchronous_top_0/SAR_Asynchronous_Logic_integration_0/SAR_Asynchronous_Logic_2/D_reset_FF_0.Q.t3 VSSD.t348 VSSD.t347 nfet_03v3 ad=0.9516p pd=4.34u as=0.9516p ps=4.34u w=1.56u l=0.28u
X13 a_20240_12186.t0 a_4388_11030.t2 VDDD.t102 VDDD.t101 pfet_03v3 ad=2.535p pd=9.1u as=2.535p ps=9.1u w=3.9u l=1.1u
X14 VSSD.t914 a_66122_n1986.t2 a_72208_n2836.t1 VSSD.t913 nfet_03v3 ad=0.9516p pd=4.34u as=0.9516p ps=4.34u w=1.56u l=0.28u
X15 VDN.t0 a_n61752_n40600.t19 cap_mim_2f0_m4m5_noshield c_width=5u c_length=5u
X16 SAR_Asynchronous_top_neg_logic_0/SAR_Asynchronous_top_0/SAR_Asynchronous_Logic_integration_0/SAR_Asynchronous_Logic_0/D_reset_FF_1.nQ SAR_Asynchronous_top_neg_logic_0/SAR_Asynchronous_top_0/SAR_Asynchronous_Logic_integration_0/SAR_Asynchronous_Logic_0/D_reset_FF_1.Q.t9 VSSD.t124 VSSD.t123 nfet_03v3 ad=0.9516p pd=4.34u as=0.9516p ps=4.34u w=1.56u l=0.28u
X17 VSSD.t964 a_44828_n3204.t5 a_46304_n3204.t3 VSSD.t963 nfet_03v3 ad=0.9516p pd=4.34u as=0.9516p ps=4.34u w=1.56u l=0.28u
X18 a_n15944_n28246# a_n23256_n28014.t2 a_n21028_n28246.t2 VSSD.t117 nfet_03v3 ad=0.9516p pd=4.34u as=0.9516p ps=4.34u w=1.56u l=0.28u
X19 VDN.t1 a_n31752_n40600.t3 cap_mim_2f0_m4m5_noshield c_width=5u c_length=5u
X20 a_12112_n40380.t0 a_11362_n40380.t2 VDDD.t127 VDDD.t126 pfet_03v3 ad=2.535p pd=9.1u as=2.535p ps=9.1u w=3.9u l=0.28u
X21 a_n83796_6688.t1 Reset.t0 VSSD.t128 VSSD.t127 nfet_03v3 ad=0.9516p pd=4.34u as=0.9516p ps=4.34u w=1.56u l=0.28u
X22 a_n6028_n28246.t0 a_n7012_n28246.t4 a_n6028_n26986# VDDD.t26 pfet_03v3 ad=2.535p pd=9.1u as=2.535p ps=9.1u w=3.9u l=0.28u
X23 a_79624_n28014# CK_1.t3 VSSD.t920 VSSD.t919 nfet_03v3 ad=0.9516p pd=4.34u as=0.9516p ps=4.34u w=1.56u l=0.28u
X24 VDDD.t152 Set.t1 a_81296_n1944# VDDD.t151 pfet_03v3 ad=2.535p pd=9.1u as=2.535p ps=9.1u w=3.9u l=0.28u
X25 a_180_n26986# clks.t0 VDDD.t208 VDDD.t207 pfet_03v3 ad=2.535p pd=9.1u as=2.535p ps=9.1u w=3.9u l=0.28u
X26 VSSD.t166 Set.t2 a_31820_n28246.t0 VSSD.t165 nfet_03v3 ad=0.9516p pd=4.34u as=0.9516p ps=4.34u w=1.56u l=0.28u
X27 a_n79816_10796.t0 Set.t3 a_n79816_12056# VDDD.t153 pfet_03v3 ad=2.535p pd=9.1u as=2.535p ps=9.1u w=3.9u l=0.28u
X28 a_n55664_12056# Set.t4 VDDD.t155 VDDD.t154 pfet_03v3 ad=2.535p pd=9.1u as=2.535p ps=9.1u w=3.9u l=0.28u
X29 SAR_Asynchronous_top_neg_logic_0/SAR_Asynchronous_top_0/SAR_Asynchronous_Logic_integration_0/SAR_Asynchronous_Logic_6/D_reset_FF_1.Q.t1 a_67496_11030.t2 a_84438_6650# VDDD.t662 pfet_03v3 ad=2.535p pd=9.1u as=2.535p ps=9.1u w=3.9u l=0.28u
X30 a_n43562_6650# a_n60504_11030.t2 VSSD.t490 VSSD.t489 nfet_03v3 ad=0.9516p pd=4.34u as=0.9516p ps=4.34u w=1.56u l=1.1u
X31 VSSD.t693 VSSD.t694 cap_mim_2f0_m4m5_noshield c_width=5u c_length=5u
X32 VCM.t14 a_3496_11030.t2 a_n16938_n39340.t4 VSSD.t957 nfet_03v3 ad=0.9516p pd=4.34u as=0.9516p ps=4.34u w=1.56u l=0.28u
X33 VDDD.t613 a_35398_n1950.t3 a_34190_n3108.t3 VDDD.t612 pfet_03v3 ad=2.535p pd=9.1u as=2.535p ps=9.1u w=3.9u l=1.1u
X34 VDDD.t157 Set.t5 a_49296_n1944# VDDD.t156 pfet_03v3 ad=2.535p pd=9.1u as=2.535p ps=9.1u w=3.9u l=0.28u
X35 VDP.t0 a_n46938_n39340.t12 cap_mim_2f0_m4m5_noshield c_width=5u c_length=5u
X36 VDDD.t129 Reset.t1 a_40988_7948# VDDD.t128 pfet_03v3 ad=2.535p pd=9.1u as=2.535p ps=9.1u w=3.9u l=0.28u
X37 a_n53272_6688.t4 a_n57892_7810.t2 a_n58010_7948.t2 VSSD.t1030 nfet_03v3 ad=0.9516p pd=4.34u as=0.9516p ps=4.34u w=1.56u l=0.28u
X38 a_n56648_10796.t0 a_n58712_11028.t2 a_n54036_10796.t0 VDDD.t619 pfet_03v3 ad=2.535p pd=9.1u as=2.535p ps=9.1u w=3.9u l=0.28u
X39 VDN.t2 a_n46752_n40600.t9 cap_mim_2f0_m4m5_noshield c_width=5u c_length=5u
X40 a_38176_6688.t1 a_38108_7810.t2 a_37990_7948.t0 VDDD.t706 pfet_03v3 ad=2.535p pd=9.1u as=2.535p ps=9.1u w=3.9u l=0.28u
X41 a_55600_n28246.t1 clks.t1 a_55600_n26986# VDDD.t209 pfet_03v3 ad=2.535p pd=9.1u as=2.535p ps=9.1u w=3.9u l=0.28u
X42 a_21744_n28014.t1 a_20924_n28014.t2 VSSD.t983 VSSD.t982 nfet_03v3 ad=0.9516p pd=4.34u as=0.9516p ps=4.34u w=1.56u l=0.28u
X43 vocp.t16 a_72208_n2082.t2 a_78118_n1944.t2 VDDD.t503 pfet_03v3 ad=2.535p pd=9.1u as=2.535p ps=9.1u w=3.9u l=0.28u
X44 a_n75944_n28246# a_n84076_n28014.t2 a_n73180_n28246.t3 VSSD.t1045 nfet_03v3 ad=0.9516p pd=4.34u as=0.9516p ps=4.34u w=1.56u l=0.28u
X45 VSSD.t1022 a_n67012_n28246.t4 a_n66028_n28246.t1 VSSD.t1021 nfet_03v3 ad=0.9516p pd=4.34u as=0.9516p ps=4.34u w=1.56u l=0.28u
X46 a_n45716_n7312.t2 Set.t6 a_n45716_n6052# VDDD.t158 pfet_03v3 ad=2.535p pd=9.1u as=2.535p ps=9.1u w=3.9u l=0.28u
X47 a_n64400_n28246.t1 clks.t2 a_n64400_n26986# VDDD.t210 pfet_03v3 ad=2.535p pd=9.1u as=2.535p ps=9.1u w=3.9u l=0.28u
X48 a_n56648_10796.t2 a_n57892_11028.t2 vocp.t18 VDDD.t734 pfet_03v3 ad=2.535p pd=9.1u as=2.535p ps=9.1u w=3.9u l=0.28u
X49 a_42728_6688.t0 a_38108_7810.t3 a_37990_7948.t1 VSSD.t1019 nfet_03v3 ad=0.9516p pd=4.34u as=0.9516p ps=4.34u w=1.56u l=0.28u
X50 a_n23256_n28014.t0 a_n24076_n28014.t2 VDDD.t532 VDDD.t531 pfet_03v3 ad=2.535p pd=9.1u as=2.535p ps=9.1u w=3.9u l=0.28u
X51 VSSD.t130 Reset.t2 a_9964_10796.t0 VSSD.t129 nfet_03v3 ad=0.9516p pd=4.34u as=0.9516p ps=4.34u w=1.56u l=0.28u
X52 SAR_Asynchronous_top_neg_logic_0/SAR_Asynchronous_top_0/SAR_Asynchronous_Logic_integration_0/SAR_Asynchronous_Logic_1/D_reset_FF_1.Q.t7 a_n28504_11030.t2 a_n11562_6650# VDDD.t692 pfet_03v3 ad=2.535p pd=9.1u as=2.535p ps=9.1u w=3.9u l=0.28u
X53 a_n21564_n6052# Set.t7 VDDD.t160 VDDD.t159 pfet_03v3 ad=2.535p pd=9.1u as=2.535p ps=9.1u w=3.9u l=0.28u
X54 a_n14820_n28246.t4 a_n15944_n28246# a_n14820_n26986# VDDD.t709 pfet_03v3 ad=2.535p pd=9.1u as=2.535p ps=9.1u w=3.9u l=0.28u
X55 VSSD.t691 VSSD.t692 cap_mim_2f0_m4m5_noshield c_width=5u c_length=5u
X56 a_n23664_10796.t4 a_n24648_10796.t4 a_n23664_12056# VDDD.t610 pfet_03v3 ad=2.535p pd=9.1u as=2.535p ps=9.1u w=3.9u l=0.28u
X57 a_16644_n6052# Reset.t3 VDDD.t131 VDDD.t130 pfet_03v3 ad=2.535p pd=9.1u as=2.535p ps=9.1u w=3.9u l=0.28u
X58 VSSD.t158 a_n43562_6650# a_n46938_n39340.t1 VSSD.t157 nfet_03v3 ad=0.9516p pd=4.34u as=0.9516p ps=4.34u w=1.56u l=1.1u
X59 a_17296_n1944# a_14118_n1944.t4 a_12828_n3204.t1 VDDD.t294 pfet_03v3 ad=2.535p pd=9.1u as=2.535p ps=9.1u w=3.9u l=0.28u
X60 a_n51172_n3204.t3 a_n55792_n2082.t2 a_n55910_n1944# VSSD.t1041 nfet_03v3 ad=0.9516p pd=4.34u as=0.9516p ps=4.34u w=1.56u l=0.28u
X61 VDP.t1 a_n73502_6630.t20 cap_mim_2f0_m4m5_noshield c_width=5u c_length=5u
X62 VDP.t2 m4_n28600_n66758# cap_mim_2f0_m4m5_noshield c_width=5u c_length=5u
X63 SAR_Asynchronous_top_neg_logic_0/SAR_Asynchronous_top_0/SAR_Asynchronous_Logic_integration_0/SAR_Asynchronous_Logic_0/D_reset_FF_1.Q.t2 a_n91612_11030.t2 a_n75760_12186.t1 VSSD.t841 nfet_03v3 ad=0.9516p pd=4.34u as=0.9516p ps=4.34u w=1.56u l=0.28u
X64 VDDD.t742 SAR_Asynchronous_top_neg_logic_0/SAR_Asynchronous_top_0/SAR_Asynchronous_Logic_integration_0/SAR_Asynchronous_Logic_2/D_reset_FF_1.Q.t9 SAR_Asynchronous_top_neg_logic_0/SAR_Asynchronous_top_0/SAR_Asynchronous_Logic_integration_0/SAR_Asynchronous_Logic_2/D_reset_FF_1.nQ VDDD.t741 pfet_03v3 ad=2.535p pd=9.1u as=2.535p ps=9.1u w=3.9u l=0.28u
X65 VSSD.t689 VSSD.t690 cap_mim_2f0_m4m5_noshield c_width=5u c_length=5u
X66 VSSD.t743 a_n55792_n2836.t2 a_n55792_n2082.t0 VSSD.t742 nfet_03v3 ad=0.9516p pd=4.34u as=0.9516p ps=4.34u w=1.56u l=0.28u
X67 a_n19172_n3204.t1 a_n23792_n2082.t2 a_n23910_n1944# VSSD.t716 nfet_03v3 ad=0.9516p pd=4.34u as=0.9516p ps=4.34u w=1.56u l=0.28u
X68 a_n15816_12056# SAR_Asynchronous_top_neg_logic_0/SAR_Asynchronous_top_0/SAR_Asynchronous_Logic_integration_0/SAR_Asynchronous_Logic_1/D_reset_FF_1.Q.t9 VDDD.t471 VDDD.t470 pfet_03v3 ad=2.535p pd=9.1u as=2.535p ps=9.1u w=3.9u l=0.28u
X69 a_12204_6688.t1 Reset.t4 VSSD.t132 VSSD.t131 nfet_03v3 ad=0.9516p pd=4.34u as=0.9516p ps=4.34u w=1.56u l=0.28u
X70 a_n63638_n40380.t1 a_n92570_11594.t5 VSSD.t709 VSSD.t708 nfet_03v3 ad=0.9516p pd=4.34u as=0.9516p ps=4.34u w=1.56u l=0.28u
X71 a_n22548_n7312.t3 a_n23792_n7080.t2 SAR_Asynchronous_top_neg_logic_0/SAR_Asynchronous_top_0/SAR_Asynchronous_Logic_integration_0/SAR_Asynchronous_Logic_2/D_reset_FF_1.Q.t7 VDDD.t459 pfet_03v3 ad=2.535p pd=9.1u as=2.535p ps=9.1u w=3.9u l=0.28u
X72 a_n79400_n28246.t4 a_n81028_n28246.t5 VSSD.t456 VSSD.t455 nfet_03v3 ad=0.9516p pd=4.34u as=0.9516p ps=4.34u w=1.56u l=0.28u
X73 a_3352_n7430# a_2122_n1986.t2 SAR_Asynchronous_top_neg_logic_0/SAR_Asynchronous_top_0/SAR_Asynchronous_Logic_integration_0/SAR_Asynchronous_Logic_8/D_reset_FF_1.Q.t6 VSSD.t875 nfet_03v3 ad=0.9516p pd=4.34u as=0.9516p ps=4.34u w=1.56u l=0.28u
X74 a_25600_n26986# a_23972_n28246.t5 VDDD.t568 VDDD.t567 pfet_03v3 ad=2.535p pd=9.1u as=2.535p ps=9.1u w=3.9u l=0.28u
X75 m4_42400_n66758# a_28248_n40600.t7 cap_mim_2f0_m4m5_noshield c_width=5u c_length=5u
X76 a_27112_n40380.t1 a_26362_n40380.t2 VSSD.t882 VSSD.t881 nfet_03v3 ad=0.9516p pd=4.34u as=0.9516p ps=4.34u w=1.56u l=0.28u
X77 m4_n28600_n66758# a_28062_n39340.t14 cap_mim_2f0_m4m5_noshield c_width=5u c_length=5u
X78 VSSD.t896 a_38108_7056.t2 a_38108_7810.t0 VSSD.t895 nfet_03v3 ad=0.9516p pd=4.34u as=0.9516p ps=4.34u w=1.56u l=0.28u
X79 a_51744_n28014.t0 a_50924_n28014.t2 VDDD.t914 VDDD.t913 pfet_03v3 ad=2.535p pd=9.1u as=2.535p ps=9.1u w=3.9u l=0.28u
X80 a_n73180_n28246.t2 a_n92570_11594.t6 VSSD.t711 VSSD.t710 nfet_03v3 ad=0.9516p pd=4.34u as=0.9516p ps=4.34u w=1.56u l=0.28u
X81 m4_n28600_n66758# a_13062_n39340.t22 cap_mim_2f0_m4m5_noshield c_width=5u c_length=5u
X82 SAR_Asynchronous_top_neg_logic_0/SAR_Asynchronous_top_0/SAR_Asynchronous_Logic_integration_0/SAR_Asynchronous_Logic_1/D_reset_FF_1.Q.t5 a_n25892_7810.t2 a_n19982_7948.t1 VDDD.t683 pfet_03v3 ad=2.535p pd=9.1u as=2.535p ps=9.1u w=3.9u l=0.28u
X83 a_6176_6688.t0 a_6108_7056.t2 a_5990_7948.t0 VSSD.t1006 nfet_03v3 ad=0.9516p pd=4.34u as=0.9516p ps=4.34u w=1.56u l=0.28u
X84 a_n44338_n40380# a_n45422_n40600# VSSD.t814 VSSD.t813 nfet_03v3 ad=0.9516p pd=4.34u as=0.9516p ps=4.34u w=1.56u l=0.28u
X85 a_35496_11030.t1 a_n14820_n28246.t5 VSSD.t798 VSSD.t797 nfet_03v3 ad=0.9516p pd=4.34u as=0.9516p ps=4.34u w=1.56u l=0.28u
X86 VDDD.t489 a_n61878_n2740.t2 a_n61878_n1986.t0 VDDD.t488 pfet_03v3 ad=2.535p pd=9.1u as=2.535p ps=9.1u w=3.9u l=0.28u
X87 a_n51936_n7312.t4 a_n53564_n7312.t5 VSSD.t755 VSSD.t754 nfet_03v3 ad=0.9516p pd=4.34u as=0.9516p ps=4.34u w=1.56u l=0.28u
X88 VSSD.t134 Reset.t5 a_76064_n7312.t2 VSSD.t133 nfet_03v3 ad=0.9516p pd=4.34u as=0.9516p ps=4.34u w=1.56u l=0.28u
X89 VSSD.t687 VSSD.t688 cap_mim_2f0_m4m5_noshield c_width=5u c_length=5u
X90 a_77420_10796# a_70108_11028.t2 a_80184_10796.t2 VDDD.t201 pfet_03v3 ad=2.535p pd=9.1u as=2.535p ps=9.1u w=3.9u l=0.28u
X91 VDDD.t582 a_2122_n1986.t3 a_8208_n2836.t0 VDDD.t581 pfet_03v3 ad=2.535p pd=9.1u as=2.535p ps=9.1u w=3.9u l=0.28u
X92 a_n16752_n40600.t5 a_n17888_n40380.t2 a_n16938_n39340.t0 VDDD.t53 pfet_03v3 ad=2.535p pd=9.1u as=2.535p ps=9.1u w=3.9u l=0.28u
X93 a_67988_n28246.t1 a_66744_n28014.t2 a_70600_n28246.t3 VSSD.t223 nfet_03v3 ad=0.9516p pd=4.34u as=0.9516p ps=4.34u w=1.56u l=0.28u
X94 a_n19936_n7312.t4 a_n21564_n7312.t5 VSSD.t462 VSSD.t461 nfet_03v3 ad=0.9516p pd=4.34u as=0.9516p ps=4.34u w=1.56u l=0.28u
X95 VDP.t3 a_n73502_6630.t19 cap_mim_2f0_m4m5_noshield c_width=5u c_length=5u
X96 a_45420_10796# a_38108_11028.t2 a_48184_10796.t3 VDDD.t578 pfet_03v3 ad=2.535p pd=9.1u as=2.535p ps=9.1u w=3.9u l=0.28u
X97 a_16184_10796.t2 SAR_Asynchronous_top_neg_logic_0/SAR_Asynchronous_top_0/SAR_Asynchronous_Logic_integration_0/SAR_Asynchronous_Logic_5/D_reset_FF_1.Q.t9 VSSD.t838 VSSD.t837 nfet_03v3 ad=0.9516p pd=4.34u as=0.9516p ps=4.34u w=1.56u l=0.28u
X98 a_n85272_6688.t4 a_n89892_7056.t2 a_n90010_7948.t3 VDDD.t602 pfet_03v3 ad=2.535p pd=9.1u as=2.535p ps=9.1u w=3.9u l=0.28u
X99 VDDD.t670 a_72208_n2836.t2 a_72208_n2082.t0 VDDD.t669 pfet_03v3 ad=2.535p pd=9.1u as=2.535p ps=9.1u w=3.9u l=0.28u
X100 a_n81028_n26986# Set.t8 VDDD.t162 VDDD.t161 pfet_03v3 ad=2.535p pd=9.1u as=2.535p ps=9.1u w=3.9u l=0.28u
X101 a_15520_n7312.t3 a_8208_n7080.t2 a_10436_n7312.t2 VSSD.t1232 nfet_03v3 ad=0.9516p pd=4.34u as=0.9516p ps=4.34u w=1.56u l=0.28u
X102 m4_42400_n66758# a_58248_n40600.t3 cap_mim_2f0_m4m5_noshield c_width=5u c_length=5u
X103 VDN.t3 a_n61752_n40600.t18 cap_mim_2f0_m4m5_noshield c_width=5u c_length=5u
X104 a_6108_11028.t0 a_5288_11028.t2 VDDD.t723 VDDD.t722 pfet_03v3 ad=2.535p pd=9.1u as=2.535p ps=9.1u w=3.9u l=0.28u
X105 a_3398_n1950.t0 a_2122_n2740.t2 SAR_Asynchronous_top_neg_logic_0/SAR_Asynchronous_top_0/SAR_Asynchronous_Logic_integration_0/SAR_Asynchronous_Logic_8/D_reset_FF_1.Q.t8 VDDD.t888 pfet_03v3 ad=2.535p pd=9.1u as=2.535p ps=9.1u w=3.9u l=0.28u
X106 a_n54036_10796.t2 Reset.t6 a_n54036_12056# VDDD.t132 pfet_03v3 ad=2.535p pd=9.1u as=2.535p ps=9.1u w=3.9u l=0.28u
X107 VSSD.t3 a_39352_10796.t4 a_40336_10796.t0 VSSD.t2 nfet_03v3 ad=0.9516p pd=4.34u as=0.9516p ps=4.34u w=1.56u l=0.28u
X108 a_38972_n28246.t3 a_37988_n28246.t4 a_38972_n26986# VDDD.t891 pfet_03v3 ad=2.535p pd=9.1u as=2.535p ps=9.1u w=3.9u l=0.28u
X109 VSSD.t685 VSSD.t686 cap_mim_2f0_m4m5_noshield c_width=5u c_length=5u
X110 a_60662_n40380# a_59578_n40600# VDDD.t864 VDDD.t863 pfet_03v3 ad=2.535p pd=9.1u as=2.535p ps=9.1u w=3.9u l=0.28u
X111 VSSD.t239 clks.t3 a_n49400_n28246.t1 VSSD.t238 nfet_03v3 ad=0.9516p pd=4.34u as=0.9516p ps=4.34u w=1.56u l=0.28u
X112 a_74728_6688.t2 a_70108_7056.t2 a_69990_7948.t1 VDDD.t374 pfet_03v3 ad=2.535p pd=9.1u as=2.535p ps=9.1u w=3.9u l=0.28u
X113 VSSD.t136 Reset.t7 SAR_Asynchronous_top_neg_logic_0/SAR_Asynchronous_top_0/SAR_Asynchronous_Logic_integration_0/SAR_Asynchronous_Logic_0/D_reset_FF_0.Q.t0 VSSD.t135 nfet_03v3 ad=0.9516p pd=4.34u as=0.9516p ps=4.34u w=1.56u l=0.28u
X114 a_n16752_n40600.t0 a_n18638_n40380.t2 a_n16938_n39340.t5 VSSD.t719 nfet_03v3 ad=0.9516p pd=4.34u as=0.9516p ps=4.34u w=1.56u l=0.28u
X115 VSSD.t168 Set.t9 a_n43180_n28246.t1 VSSD.t167 nfet_03v3 ad=0.9516p pd=4.34u as=0.9516p ps=4.34u w=1.56u l=0.28u
X116 VDP.t4 a_n1938_n39340.t3 cap_mim_2f0_m4m5_noshield c_width=5u c_length=5u
X117 a_8208_n7080.t0 a_7388_n7080.t2 VDDD.t508 VDDD.t507 pfet_03v3 ad=2.535p pd=9.1u as=2.535p ps=9.1u w=3.9u l=0.28u
X118 a_n7012_n28246.t2 a_n8256_n28014.t2 a_n4400_n28246.t4 VSSD.t793 nfet_03v3 ad=0.9516p pd=4.34u as=0.9516p ps=4.34u w=1.56u l=0.28u
X119 a_41362_n40380.t0 SAR_Asynchronous_top_neg_logic_0/SAR_Asynchronous_top_0/SAR_Logic_0.CK4.t5 VDDD.t479 VDDD.t478 pfet_03v3 ad=2.535p pd=9.1u as=2.535p ps=9.1u w=3.9u l=0.28u
X120 a_7352_10796.t3 a_6108_11028.t2 a_9964_10796.t4 VSSD.t1065 nfet_03v3 ad=0.9516p pd=4.34u as=0.9516p ps=4.34u w=1.56u l=0.28u
X121 a_n48480_n7312.t2 a_n56612_n7080.t2 a_n53564_n7312.t1 VDDD.t203 pfet_03v3 ad=2.535p pd=9.1u as=2.535p ps=9.1u w=3.9u l=0.28u
X122 VDN.t4 a_n61752_n40600.t17 cap_mim_2f0_m4m5_noshield c_width=5u c_length=5u
X123 a_n82580_10796# a_n89892_11028.t2 a_n79816_10796.t2 VDDD.t401 pfet_03v3 ad=2.535p pd=9.1u as=2.535p ps=9.1u w=3.9u l=0.28u
X124 a_45420_10796# a_37288_11028.t3 a_40336_10796.t2 VDDD.t20 pfet_03v3 ad=2.535p pd=9.1u as=2.535p ps=9.1u w=3.9u l=0.28u
X125 a_39348_7948# Set.t10 a_38176_6688.t3 VDDD.t163 pfet_03v3 ad=2.535p pd=9.1u as=2.535p ps=9.1u w=3.9u l=0.28u
X126 a_n14704_n1944# a_n17882_n1944.t4 a_n19172_n3204.t3 VDDD.t710 pfet_03v3 ad=2.535p pd=9.1u as=2.535p ps=9.1u w=3.9u l=0.28u
X127 VDDD.t842 SAR_Asynchronous_top_neg_logic_0/SAR_Asynchronous_top_0/SAR_Asynchronous_Logic_integration_0/SAR_Asynchronous_Logic_7/D_reset_FF_1.Q.t9 a_73448_n1944# VDDD.t841 pfet_03v3 ad=2.535p pd=9.1u as=2.535p ps=9.1u w=3.9u l=0.28u
X128 VDN.t5 a_n31752_n40600.t4 cap_mim_2f0_m4m5_noshield c_width=5u c_length=5u
X129 SAR_Asynchronous_top_neg_logic_0/SAR_Asynchronous_top_0/SAR_Asynchronous_Logic_integration_0/SAR_Asynchronous_Logic_6/D_reset_FF_1.Q.t3 a_68388_11030.t2 a_84240_12186.t2 VSSD.t328 nfet_03v3 ad=0.9516p pd=4.34u as=0.9516p ps=4.34u w=1.56u l=0.28u
X130 a_44064_n6052# a_42436_n7312.t5 VDDD.t762 VDDD.t761 pfet_03v3 ad=2.535p pd=9.1u as=2.535p ps=9.1u w=3.9u l=0.28u
X131 VSSD.t683 VSSD.t684 cap_mim_2f0_m4m5_noshield c_width=5u c_length=5u
X132 a_n16938_n39340.t3 a_20240_12186.t3 VDDD.t144 VDDD.t143 pfet_03v3 ad=2.535p pd=9.1u as=2.535p ps=9.1u w=3.9u l=1.1u
X133 a_45568_7948# Reset.t8 a_44204_6688.t3 VDDD.t133 pfet_03v3 ad=2.535p pd=9.1u as=2.535p ps=9.1u w=3.9u l=0.28u
X134 VDDD.t481 SAR_Asynchronous_top_neg_logic_0/SAR_Asynchronous_top_0/SAR_Logic_0.CK4.t6 a_34122_n2740.t0 VDDD.t480 pfet_03v3 ad=2.535p pd=9.1u as=2.535p ps=9.1u w=3.9u l=0.28u
X135 a_n55724_n3204.t0 Set.t11 VSSD.t170 VSSD.t169 nfet_03v3 ad=0.9516p pd=4.34u as=0.9516p ps=4.34u w=1.56u l=0.28u
X136 a_n56612_n7080.t0 clks.t4 VDDD.t212 VDDD.t211 pfet_03v3 ad=2.535p pd=9.1u as=2.535p ps=9.1u w=3.9u l=0.28u
X137 a_n51028_n28246.t4 a_n52012_n28246.t4 a_n51028_n26986# VDDD.t314 pfet_03v3 ad=2.535p pd=9.1u as=2.535p ps=9.1u w=3.9u l=0.28u
X138 a_n6028_n26986# Set.t12 VDDD.t165 VDDD.t164 pfet_03v3 ad=2.535p pd=9.1u as=2.535p ps=9.1u w=3.9u l=0.28u
X139 VSSD.t325 a_10728_6688.t5 a_12204_6688.t0 VSSD.t324 nfet_03v3 ad=0.9516p pd=4.34u as=0.9516p ps=4.34u w=1.56u l=0.28u
X140 VSSD.t910 a_66122_n2740.t2 a_66122_n1986.t0 VSSD.t909 nfet_03v3 ad=0.9516p pd=4.34u as=0.9516p ps=4.34u w=1.56u l=0.28u
X141 a_20924_n28014.t1 Valid.t0 VDDD.t764 VDDD.t763 pfet_03v3 ad=2.535p pd=9.1u as=2.535p ps=9.1u w=3.9u l=0.28u
X142 a_n25376_n28014# a_n29820_n28246.t5 VSSD.t372 VSSD.t371 nfet_03v3 ad=0.9516p pd=4.34u as=0.9516p ps=4.34u w=1.56u l=0.28u
X143 a_n17888_n40380.t0 a_n18638_n40380.t3 VSSD.t721 VSSD.t720 nfet_03v3 ad=0.9516p pd=4.34u as=0.9516p ps=4.34u w=1.56u l=0.28u
X144 a_73452_n7312.t3 a_71388_n7080.t2 SAR_Asynchronous_top_neg_logic_0/SAR_Asynchronous_top_0/SAR_Asynchronous_Logic_integration_0/SAR_Asynchronous_Logic_7/D_reset_FF_1.Q.t0 VSSD.t317 nfet_03v3 ad=0.9516p pd=4.34u as=0.9516p ps=4.34u w=1.56u l=0.28u
X145 a_n24076_n28014.t1 Valid.t1 VDDD.t766 VDDD.t765 pfet_03v3 ad=2.535p pd=9.1u as=2.535p ps=9.1u w=3.9u l=0.28u
X146 m4_n28600_n66758# a_34190_n3108.t10 cap_mim_2f0_m4m5_noshield c_width=5u c_length=5u
X147 VDP.t5 a_n46938_n39340.t11 cap_mim_2f0_m4m5_noshield c_width=5u c_length=5u
X148 VSSD.t172 Set.t13 a_n47816_10796.t2 VSSD.t171 nfet_03v3 ad=0.9516p pd=4.34u as=0.9516p ps=4.34u w=1.56u l=0.28u
X149 a_n2888_n40380.t0 a_n3638_n40380.t2 VDDD.t699 VDDD.t698 pfet_03v3 ad=2.535p pd=9.1u as=2.535p ps=9.1u w=3.9u l=0.28u
X150 a_n23664_10796.t0 Set.t14 VSSD.t174 VSSD.t173 nfet_03v3 ad=0.9516p pd=4.34u as=0.9516p ps=4.34u w=1.56u l=0.28u
X151 VDDD.t918 a_n61878_n1986.t2 a_n55792_n2836.t1 VDDD.t917 pfet_03v3 ad=2.535p pd=9.1u as=2.535p ps=9.1u w=3.9u l=0.28u
X152 VSSD.t1268 a_n75944_n28246# a_n92570_11594.t3 VSSD.t1267 nfet_03v3 ad=0.9516p pd=4.34u as=0.9516p ps=4.34u w=1.56u l=0.28u
X153 VDN.t6 a_n46752_n40600.t8 cap_mim_2f0_m4m5_noshield c_width=5u c_length=5u
X154 a_73452_n7312.t1 a_72208_n7080.t2 a_76064_n7312.t4 VSSD.t908 nfet_03v3 ad=0.9516p pd=4.34u as=0.9516p ps=4.34u w=1.56u l=0.28u
X155 a_52988_n28246.t3 a_50924_n28014.t3 a_22686_n2406.t4 VSSD.t1254 nfet_03v3 ad=0.9516p pd=4.34u as=0.9516p ps=4.34u w=1.56u l=0.28u
X156 a_n66028_n28246.t0 Set.t15 VSSD.t176 VSSD.t175 nfet_03v3 ad=0.9516p pd=4.34u as=0.9516p ps=4.34u w=1.56u l=0.28u
X157 a_n24648_10796.t0 a_n25892_11028.t2 a_n22036_10796.t0 VSSD.t397 nfet_03v3 ad=0.9516p pd=4.34u as=0.9516p ps=4.34u w=1.56u l=0.28u
X158 a_73964_10796.t0 a_72336_10796.t5 VSSD.t412 VSSD.t411 nfet_03v3 ad=0.9516p pd=4.34u as=0.9516p ps=4.34u w=1.56u l=0.28u
X159 a_n23724_n3204.t4 a_n23792_n2836.t2 a_n23910_n1944# VSSD.t1183 nfet_03v3 ad=0.9516p pd=4.34u as=0.9516p ps=4.34u w=1.56u l=0.28u
X160 a_74436_n7312.t1 Set.t16 VSSD.t178 VSSD.t177 nfet_03v3 ad=0.9516p pd=4.34u as=0.9516p ps=4.34u w=1.56u l=0.28u
X161 a_n64400_n26986# a_n66028_n28246.t5 VDDD.t516 VDDD.t515 pfet_03v3 ad=2.535p pd=9.1u as=2.535p ps=9.1u w=3.9u l=0.28u
X162 SAR_Asynchronous_top_neg_logic_0/SAR_Asynchronous_top_0/SAR_Asynchronous_Logic_integration_0/SAR_Asynchronous_Logic_5/D_reset_FF_1.Q.t6 a_13420_10796# a_14544_12056# VDDD.t414 pfet_03v3 ad=2.535p pd=9.1u as=2.535p ps=9.1u w=3.9u l=0.28u
X163 a_n9314_n2406.t0 clks.t5 VSSD.t241 VSSD.t240 nfet_03v3 ad=0.9516p pd=4.34u as=0.9516p ps=4.34u w=1.56u l=0.28u
X164 a_6176_6688.t1 Set.t17 VSSD.t180 VSSD.t179 nfet_03v3 ad=0.9516p pd=4.34u as=0.9516p ps=4.34u w=1.56u l=0.28u
X165 a_n52912_n1944# a_n55910_n1944# SAR_Asynchronous_top_neg_logic_0/SAR_Asynchronous_top_0/SAR_Asynchronous_Logic_integration_0/SAR_Asynchronous_Logic_4/D_reset_FF_1.Q.t8 VDDD.t592 pfet_03v3 ad=2.535p pd=9.1u as=2.535p ps=9.1u w=3.9u l=0.28u
X166 a_9448_n1944# Set.t18 a_8276_n3204.t0 VDDD.t166 pfet_03v3 ad=2.535p pd=9.1u as=2.535p ps=9.1u w=3.9u l=0.28u
X167 VSSD.t182 Set.t19 a_50284_n7312.t0 VSSD.t181 nfet_03v3 ad=0.9516p pd=4.34u as=0.9516p ps=4.34u w=1.56u l=0.28u
X168 VSSD.t681 VSSD.t682 cap_mim_2f0_m4m5_noshield c_width=5u c_length=5u
X169 a_75662_n40380# a_74578_n40600# VSSD.t470 VSSD.t469 nfet_03v3 ad=0.9516p pd=4.34u as=0.9516p ps=4.34u w=1.56u l=0.28u
X170 a_49624_n28014# a_22686_n2406.t5 VSSD.t1062 VSSD.t1061 nfet_03v3 ad=0.9516p pd=4.34u as=0.9516p ps=4.34u w=1.56u l=0.28u
X171 SAR_Asynchronous_top_neg_logic_0/SAR_Asynchronous_top_0/SAR_Asynchronous_Logic_integration_0/SAR_Asynchronous_Logic_5/D_reset_FF_0.Q.t1 a_5990_7948.t4 VSSD.t104 VSSD.t103 nfet_03v3 ad=0.9516p pd=4.34u as=0.9516p ps=4.34u w=1.56u l=0.28u
X172 SAR_Asynchronous_top_neg_logic_0/SAR_Asynchronous_top_0/SAR_Asynchronous_Logic_integration_0/SAR_Asynchronous_Logic_4/D_reset_FF_0.Q.t0 Reset.t9 VSSD.t138 VSSD.t137 nfet_03v3 ad=0.9516p pd=4.34u as=0.9516p ps=4.34u w=1.56u l=0.28u
X173 VDDD.t385 a_n60602_n1950.t3 a_n61810_n3108.t2 VDDD.t384 pfet_03v3 ad=2.535p pd=9.1u as=2.535p ps=9.1u w=3.9u l=1.1u
X174 m4_42400_n66758# a_13248_n40600.t19 cap_mim_2f0_m4m5_noshield c_width=5u c_length=5u
X175 a_n24648_10796.t2 a_n26712_11028.t2 vocp.t8 VSSD.t442 nfet_03v3 ad=0.9516p pd=4.34u as=0.9516p ps=4.34u w=1.56u l=0.28u
X176 SAR_Asynchronous_top_neg_logic_0/SAR_Asynchronous_top_0/SAR_Asynchronous_Logic_integration_0/SAR_Asynchronous_Logic_0/D_reset_FF_0.Q.t2 a_n90010_7948.t4 VSSD.t784 VSSD.t783 nfet_03v3 ad=0.9516p pd=4.34u as=0.9516p ps=4.34u w=1.56u l=0.28u
X177 SAR_Asynchronous_top_neg_logic_0/SAR_Asynchronous_top_0/SAR_Asynchronous_Logic_integration_0/SAR_Asynchronous_Logic_7/D_reset_FF_0.nQ SAR_Asynchronous_top_neg_logic_0/SAR_Asynchronous_top_0/SAR_Asynchronous_Logic_integration_0/SAR_Asynchronous_Logic_7/D_reset_FF_0.Q.t3 VDDD.t266 VDDD.t265 pfet_03v3 ad=2.535p pd=9.1u as=2.535p ps=9.1u w=3.9u l=0.28u
X178 VSSD.t184 Set.t20 a_18284_n7312.t2 VSSD.t183 nfet_03v3 ad=0.9516p pd=4.34u as=0.9516p ps=4.34u w=1.56u l=0.28u
X179 a_8972_n28246.t0 Set.t21 VSSD.t186 VSSD.t185 nfet_03v3 ad=0.9516p pd=4.34u as=0.9516p ps=4.34u w=1.56u l=0.28u
X180 a_n54036_12056# a_n55664_10796.t5 VDDD.t505 VDDD.t504 pfet_03v3 ad=2.535p pd=9.1u as=2.535p ps=9.1u w=3.9u l=0.28u
X181 a_n60504_11030.t1 a_n60570_11594.t6 VSSD.t409 VSSD.t408 nfet_03v3 ad=0.9516p pd=4.34u as=0.9516p ps=4.34u w=1.56u l=0.28u
X182 a_n55376_n28014# a_n60570_11594.t7 VDDD.t5 VDDD.t4 pfet_03v3 ad=2.535p pd=9.1u as=2.535p ps=9.1u w=3.9u l=0.28u
X183 a_n89824_6688.t0 Set.t22 VSSD.t188 VSSD.t187 nfet_03v3 ad=0.9516p pd=4.34u as=0.9516p ps=4.34u w=1.56u l=0.28u
X184 a_15520_n7312.t2 a_8208_n7080.t3 a_18284_n7312.t3 VDDD.t887 pfet_03v3 ad=2.535p pd=9.1u as=2.535p ps=9.1u w=3.9u l=0.28u
X185 a_56362_n40380.t1 a_22686_n2406.t6 VSSD.t1244 VSSD.t1243 nfet_03v3 ad=0.9516p pd=4.34u as=0.9516p ps=4.34u w=1.56u l=0.28u
X186 a_9964_12056# a_8336_10796.t5 VDDD.t434 VDDD.t433 pfet_03v3 ad=2.535p pd=9.1u as=2.535p ps=9.1u w=3.9u l=0.28u
X187 VDDD.t432 a_n28602_n1950.t3 a_n29810_n3108.t2 VDDD.t431 pfet_03v3 ad=2.535p pd=9.1u as=2.535p ps=9.1u w=3.9u l=1.1u
X188 a_75088_n1944# a_72090_n1944# SAR_Asynchronous_top_neg_logic_0/SAR_Asynchronous_top_0/SAR_Asynchronous_Logic_integration_0/SAR_Asynchronous_Logic_7/D_reset_FF_1.Q.t7 VDDD.t566 pfet_03v3 ad=2.535p pd=9.1u as=2.535p ps=9.1u w=3.9u l=0.28u
X189 a_n49696_n3204.t1 Reset.t10 VSSD.t140 VSSD.t139 nfet_03v3 ad=0.9516p pd=4.34u as=0.9516p ps=4.34u w=1.56u l=0.28u
X190 CK_1.t2 a_74056_n28246# a_75180_n26986# VDDD.t402 pfet_03v3 ad=2.535p pd=9.1u as=2.535p ps=9.1u w=3.9u l=0.28u
X191 VSSD.t679 VSSD.t680 cap_mim_2f0_m4m5_noshield c_width=5u c_length=5u
X192 a_78304_n3204.t2 a_72208_n2082.t3 a_78118_n1944.t3 VSSD.t772 nfet_03v3 ad=0.9516p pd=4.34u as=0.9516p ps=4.34u w=1.56u l=0.28u
X193 m4_42400_n66758# a_28248_n40600.t6 cap_mim_2f0_m4m5_noshield c_width=5u c_length=5u
X194 a_n28504_11030.t1 a_n44820_n28246.t6 VSSD.t225 VSSD.t224 nfet_03v3 ad=0.9516p pd=4.34u as=0.9516p ps=4.34u w=1.56u l=0.28u
X195 VDDD.t214 clks.t6 a_n25892_7056.t0 VDDD.t213 pfet_03v3 ad=2.535p pd=9.1u as=2.535p ps=9.1u w=3.9u l=0.28u
X196 a_25600_n28246.t1 clks.t7 a_25600_n26986# VDDD.t215 pfet_03v3 ad=2.535p pd=9.1u as=2.535p ps=9.1u w=3.9u l=0.28u
X197 a_n57892_11028.t0 a_n58712_11028.t3 VDDD.t621 VDDD.t620 pfet_03v3 ad=2.535p pd=9.1u as=2.535p ps=9.1u w=3.9u l=0.28u
X198 a_80184_10796.t1 Set.t23 a_80184_12056# VDDD.t167 pfet_03v3 ad=2.535p pd=9.1u as=2.535p ps=9.1u w=3.9u l=0.28u
X199 a_84240_12186.t1 a_68388_11030.t3 VDDD.t284 VDDD.t283 pfet_03v3 ad=2.535p pd=9.1u as=2.535p ps=9.1u w=3.9u l=1.1u
X200 VDDD.t628 SAR_Asynchronous_top_neg_logic_0/SAR_Asynchronous_top_0/SAR_Asynchronous_Logic_integration_0/SAR_Asynchronous_Logic_1/D_reset_FF_0.Q.t3 SAR_Asynchronous_top_neg_logic_0/SAR_Asynchronous_top_0/SAR_Asynchronous_Logic_integration_0/SAR_Asynchronous_Logic_1/D_reset_FF_0.nQ VDDD.t627 pfet_03v3 ad=2.535p pd=9.1u as=2.535p ps=9.1u w=3.9u l=0.28u
X201 a_n45944_n28246# a_n54076_n28014.t2 a_n43180_n28246.t4 VSSD.t385 nfet_03v3 ad=0.9516p pd=4.34u as=0.9516p ps=4.34u w=1.56u l=0.28u
X202 m4_n28600_n66758# a_28062_n39340.t13 cap_mim_2f0_m4m5_noshield c_width=5u c_length=5u
X203 VDDD.t135 Reset.t11 a_n20912_n1944# VDDD.t134 pfet_03v3 ad=2.535p pd=9.1u as=2.535p ps=9.1u w=3.9u l=0.28u
X204 a_14304_n3204.t0 Reset.t12 VSSD.t142 VSSD.t141 nfet_03v3 ad=0.9516p pd=4.34u as=0.9516p ps=4.34u w=1.56u l=0.28u
X205 VSSD.t698 a_n37012_n28246.t4 a_n36028_n28246.t3 VSSD.t697 nfet_03v3 ad=0.9516p pd=4.34u as=0.9516p ps=4.34u w=1.56u l=0.28u
X206 VDDD.t925 a_42728_6688.t5 a_45568_7948# VDDD.t924 pfet_03v3 ad=2.535p pd=9.1u as=2.535p ps=9.1u w=3.9u l=0.28u
X207 SAR_Asynchronous_top_neg_logic_0/SAR_Asynchronous_top_0/SAR_Asynchronous_Logic_integration_0/SAR_Asynchronous_Logic_2/D_reset_FF_0.nQ SAR_Asynchronous_top_neg_logic_0/SAR_Asynchronous_top_0/SAR_Asynchronous_Logic_integration_0/SAR_Asynchronous_Logic_2/D_reset_FF_0.Q.t4 VDDD.t308 VDDD.t307 pfet_03v3 ad=2.535p pd=9.1u as=2.535p ps=9.1u w=3.9u l=0.28u
X208 a_n34400_n28246.t1 clks.t8 a_n34400_n26986# VDDD.t216 pfet_03v3 ad=2.535p pd=9.1u as=2.535p ps=9.1u w=3.9u l=0.28u
X209 a_n944_n28246# a_n9076_n28014.t2 a_n6028_n28246.t3 VDDD.t364 pfet_03v3 ad=2.535p pd=9.1u as=2.535p ps=9.1u w=3.9u l=0.28u
X210 a_48184_10796.t2 Set.t24 a_48184_12056# VDDD.t168 pfet_03v3 ad=2.535p pd=9.1u as=2.535p ps=9.1u w=3.9u l=0.28u
X211 a_n60944_n28246# a_n68256_n28014.t2 a_n66028_n28246.t3 VSSD.t736 nfet_03v3 ad=0.9516p pd=4.34u as=0.9516p ps=4.34u w=1.56u l=0.28u
X212 VDP.t6 a_n46938_n39340.t10 cap_mim_2f0_m4m5_noshield c_width=5u c_length=5u
X213 a_72276_n3204.t2 a_72208_n2836.t3 a_72090_n1944# VSSD.t976 nfet_03v3 ad=0.9516p pd=4.34u as=0.9516p ps=4.34u w=1.56u l=0.28u
X214 VDP.t7 a_n73502_6630.t18 cap_mim_2f0_m4m5_noshield c_width=5u c_length=5u
X215 a_35352_n7430# a_34122_n2740.t2 SAR_Asynchronous_top_neg_logic_0/SAR_Asynchronous_top_0/SAR_Asynchronous_Logic_integration_0/SAR_Asynchronous_Logic_9/D_reset_FF_1.Q.t6 VDDD.t757 pfet_03v3 ad=2.535p pd=9.1u as=2.535p ps=9.1u w=3.9u l=0.28u
X216 a_79624_n28014# CK_1.t4 VDDD.t615 VDDD.t614 pfet_03v3 ad=2.535p pd=9.1u as=2.535p ps=9.1u w=3.9u l=0.28u