* Extracted by KLayout with GF180MCU LVS runset on : 18/02/2024 19:22

.SUBCKT SAR_Logic VSSD D VDDD
M$1 \$115 \$2 VDDD VDDD pfet_03v3 L=0.28U W=3.9U AS=2.535P AD=2.535P PS=9.1U
+ PD=9.1U
M$2 \$116 \$115 VDDD VDDD pfet_03v3 L=0.28U W=3.9U AS=2.535P AD=2.535P PS=9.1U
+ PD=9.1U
M$3 \$117 \$54 VDDD VDDD pfet_03v3 L=0.28U W=3.9U AS=2.535P AD=2.535P PS=9.1U
+ PD=9.1U
M$4 \$118 \$2 VDDD VDDD pfet_03v3 L=0.28U W=3.9U AS=2.535P AD=2.535P PS=9.1U
+ PD=9.1U
M$5 \$119 \$118 VDDD VDDD pfet_03v3 L=0.28U W=3.9U AS=2.535P AD=2.535P PS=9.1U
+ PD=9.1U
M$6 \$120 \$60 VDDD VDDD pfet_03v3 L=0.28U W=3.9U AS=2.535P AD=2.535P PS=9.1U
+ PD=9.1U
M$7 \$121 \$2 VDDD VDDD pfet_03v3 L=0.28U W=3.9U AS=2.535P AD=2.535P PS=9.1U
+ PD=9.1U
M$8 \$122 \$121 VDDD VDDD pfet_03v3 L=0.28U W=3.9U AS=2.535P AD=2.535P PS=9.1U
+ PD=9.1U
M$9 \$123 \$66 VDDD VDDD pfet_03v3 L=0.28U W=3.9U AS=2.535P AD=2.535P PS=9.1U
+ PD=9.1U
M$10 \$124 \$2 VDDD VDDD pfet_03v3 L=0.28U W=3.9U AS=2.535P AD=2.535P PS=9.1U
+ PD=9.1U
M$11 \$125 \$124 VDDD VDDD pfet_03v3 L=0.28U W=3.9U AS=2.535P AD=2.535P PS=9.1U
+ PD=9.1U
M$12 \$126 \$72 VDDD VDDD pfet_03v3 L=0.28U W=3.9U AS=2.535P AD=2.535P PS=9.1U
+ PD=9.1U
M$13 \$127 \$2 VDDD VDDD pfet_03v3 L=0.28U W=3.9U AS=2.535P AD=2.535P PS=9.1U
+ PD=9.1U
M$14 \$128 \$127 VDDD VDDD pfet_03v3 L=0.28U W=3.9U AS=2.535P AD=2.535P PS=9.1U
+ PD=9.1U
M$15 \$129 \$78 VDDD VDDD pfet_03v3 L=0.28U W=3.9U AS=2.535P AD=2.535P PS=9.1U
+ PD=9.1U
M$16 \$130 \$2 VDDD VDDD pfet_03v3 L=0.28U W=3.9U AS=2.535P AD=2.535P PS=9.1U
+ PD=9.1U
M$17 \$131 \$130 VDDD VDDD pfet_03v3 L=0.28U W=3.9U AS=2.535P AD=2.535P PS=9.1U
+ PD=9.1U
M$18 \$132 \$84 VDDD VDDD pfet_03v3 L=0.28U W=3.9U AS=2.535P AD=2.535P PS=9.1U
+ PD=9.1U
M$19 \$133 \$2 VDDD VDDD pfet_03v3 L=0.28U W=3.9U AS=2.535P AD=2.535P PS=9.1U
+ PD=9.1U
M$20 \$134 \$133 VDDD VDDD pfet_03v3 L=0.28U W=3.9U AS=2.535P AD=2.535P PS=9.1U
+ PD=9.1U
M$21 \$135 \$90 VDDD VDDD pfet_03v3 L=0.28U W=3.9U AS=2.535P AD=2.535P PS=9.1U
+ PD=9.1U
M$22 \$136 \$2 VDDD VDDD pfet_03v3 L=0.28U W=3.9U AS=2.535P AD=2.535P PS=9.1U
+ PD=9.1U
M$23 \$137 \$136 VDDD VDDD pfet_03v3 L=0.28U W=3.9U AS=2.535P AD=2.535P PS=9.1U
+ PD=9.1U
M$24 \$138 \$96 VDDD VDDD pfet_03v3 L=0.28U W=3.9U AS=2.535P AD=2.535P PS=9.1U
+ PD=9.1U
M$25 \$139 \$2 VDDD VDDD pfet_03v3 L=0.28U W=3.9U AS=2.535P AD=2.535P PS=9.1U
+ PD=9.1U
M$26 \$140 \$139 VDDD VDDD pfet_03v3 L=0.28U W=3.9U AS=2.535P AD=2.535P PS=9.1U
+ PD=9.1U
M$27 \$141 \$102 VDDD VDDD pfet_03v3 L=0.28U W=3.9U AS=2.535P AD=2.535P PS=9.1U
+ PD=9.1U
M$28 \$142 \$2 VDDD VDDD pfet_03v3 L=0.28U W=3.9U AS=2.535P AD=2.535P PS=9.1U
+ PD=9.1U
M$29 \$143 \$142 VDDD VDDD pfet_03v3 L=0.28U W=3.9U AS=2.535P AD=2.535P PS=9.1U
+ PD=9.1U
M$30 \$144 \$108 VDDD VDDD pfet_03v3 L=0.28U W=3.9U AS=2.535P AD=2.535P PS=9.1U
+ PD=9.1U
M$31 \$145 \$2 VDDD VDDD pfet_03v3 L=0.28U W=3.9U AS=2.535P AD=2.535P PS=9.1U
+ PD=9.1U
M$32 \$146 \$145 VDDD VDDD pfet_03v3 L=0.28U W=3.9U AS=2.535P AD=2.535P PS=9.1U
+ PD=9.1U
M$33 \$147 \$112 VDDD VDDD pfet_03v3 L=0.28U W=3.9U AS=2.535P AD=2.535P PS=9.1U
+ PD=9.1U
M$34 \$49 \$116 D VDDD pfet_03v3 L=0.28U W=3.9U AS=2.535P AD=2.535P PS=9.1U
+ PD=9.1U
M$35 \$942 \$3 VDDD VDDD pfet_03v3 L=0.28U W=3.9U AS=2.535P AD=2.535P PS=9.1U
+ PD=9.1U
M$36 \$50 \$49 \$942 VDDD pfet_03v3 L=0.28U W=3.9U AS=2.535P AD=2.535P PS=9.1U
+ PD=9.1U
M$37 \$943 \$50 VDDD VDDD pfet_03v3 L=0.28U W=3.9U AS=2.535P AD=2.535P PS=9.1U
+ PD=9.1U
M$38 \$51 \$478 \$943 VDDD pfet_03v3 L=0.28U W=3.9U AS=2.535P AD=2.535P PS=9.1U
+ PD=9.1U
M$39 \$49 \$115 \$51 VDDD pfet_03v3 L=0.28U W=3.9U AS=2.535P AD=2.535P PS=9.1U
+ PD=9.1U
M$40 \$53 \$115 \$50 VDDD pfet_03v3 L=0.28U W=3.9U AS=2.535P AD=2.535P PS=9.1U
+ PD=9.1U
M$41 \$944 \$478 VDDD VDDD pfet_03v3 L=0.28U W=3.9U AS=2.535P AD=2.535P PS=9.1U
+ PD=9.1U
M$42 \$54 \$53 \$944 VDDD pfet_03v3 L=0.28U W=3.9U AS=2.535P AD=2.535P PS=9.1U
+ PD=9.1U
M$43 \$945 \$54 VDDD VDDD pfet_03v3 L=0.28U W=3.9U AS=2.535P AD=2.535P PS=9.1U
+ PD=9.1U
M$44 \$52 \$3 \$945 VDDD pfet_03v3 L=0.28U W=3.9U AS=2.535P AD=2.535P PS=9.1U
+ PD=9.1U
M$45 \$53 \$116 \$52 VDDD pfet_03v3 L=0.28U W=3.9U AS=2.535P AD=2.535P PS=9.1U
+ PD=9.1U
M$46 \$55 \$119 \$54 VDDD pfet_03v3 L=0.28U W=3.9U AS=2.535P AD=2.535P PS=9.1U
+ PD=9.1U
M$47 \$946 \$3 VDDD VDDD pfet_03v3 L=0.28U W=3.9U AS=2.535P AD=2.535P PS=9.1U
+ PD=9.1U
M$48 \$56 \$55 \$946 VDDD pfet_03v3 L=0.28U W=3.9U AS=2.535P AD=2.535P PS=9.1U
+ PD=9.1U
M$49 \$947 \$56 VDDD VDDD pfet_03v3 L=0.28U W=3.9U AS=2.535P AD=2.535P PS=9.1U
+ PD=9.1U
M$50 \$57 \$478 \$947 VDDD pfet_03v3 L=0.28U W=3.9U AS=2.535P AD=2.535P PS=9.1U
+ PD=9.1U
M$51 \$55 \$118 \$57 VDDD pfet_03v3 L=0.28U W=3.9U AS=2.535P AD=2.535P PS=9.1U
+ PD=9.1U
M$52 \$59 \$118 \$56 VDDD pfet_03v3 L=0.28U W=3.9U AS=2.535P AD=2.535P PS=9.1U
+ PD=9.1U
M$53 \$948 \$478 VDDD VDDD pfet_03v3 L=0.28U W=3.9U AS=2.535P AD=2.535P PS=9.1U
+ PD=9.1U
M$54 \$60 \$59 \$948 VDDD pfet_03v3 L=0.28U W=3.9U AS=2.535P AD=2.535P PS=9.1U
+ PD=9.1U
M$55 \$949 \$60 VDDD VDDD pfet_03v3 L=0.28U W=3.9U AS=2.535P AD=2.535P PS=9.1U
+ PD=9.1U
M$56 \$58 \$3 \$949 VDDD pfet_03v3 L=0.28U W=3.9U AS=2.535P AD=2.535P PS=9.1U
+ PD=9.1U
M$57 \$59 \$119 \$58 VDDD pfet_03v3 L=0.28U W=3.9U AS=2.535P AD=2.535P PS=9.1U
+ PD=9.1U
M$58 \$61 \$122 \$60 VDDD pfet_03v3 L=0.28U W=3.9U AS=2.535P AD=2.535P PS=9.1U
+ PD=9.1U
M$59 \$950 \$3 VDDD VDDD pfet_03v3 L=0.28U W=3.9U AS=2.535P AD=2.535P PS=9.1U
+ PD=9.1U
M$60 \$62 \$61 \$950 VDDD pfet_03v3 L=0.28U W=3.9U AS=2.535P AD=2.535P PS=9.1U
+ PD=9.1U
M$61 \$951 \$62 VDDD VDDD pfet_03v3 L=0.28U W=3.9U AS=2.535P AD=2.535P PS=9.1U
+ PD=9.1U
M$62 \$63 \$478 \$951 VDDD pfet_03v3 L=0.28U W=3.9U AS=2.535P AD=2.535P PS=9.1U
+ PD=9.1U
M$63 \$61 \$121 \$63 VDDD pfet_03v3 L=0.28U W=3.9U AS=2.535P AD=2.535P PS=9.1U
+ PD=9.1U
M$64 \$65 \$121 \$62 VDDD pfet_03v3 L=0.28U W=3.9U AS=2.535P AD=2.535P PS=9.1U
+ PD=9.1U
M$65 \$952 \$478 VDDD VDDD pfet_03v3 L=0.28U W=3.9U AS=2.535P AD=2.535P PS=9.1U
+ PD=9.1U
M$66 \$66 \$65 \$952 VDDD pfet_03v3 L=0.28U W=3.9U AS=2.535P AD=2.535P PS=9.1U
+ PD=9.1U
M$67 \$953 \$66 VDDD VDDD pfet_03v3 L=0.28U W=3.9U AS=2.535P AD=2.535P PS=9.1U
+ PD=9.1U
M$68 \$64 \$3 \$953 VDDD pfet_03v3 L=0.28U W=3.9U AS=2.535P AD=2.535P PS=9.1U
+ PD=9.1U
M$69 \$65 \$122 \$64 VDDD pfet_03v3 L=0.28U W=3.9U AS=2.535P AD=2.535P PS=9.1U
+ PD=9.1U
M$70 \$67 \$125 \$66 VDDD pfet_03v3 L=0.28U W=3.9U AS=2.535P AD=2.535P PS=9.1U
+ PD=9.1U
M$71 \$954 \$3 VDDD VDDD pfet_03v3 L=0.28U W=3.9U AS=2.535P AD=2.535P PS=9.1U
+ PD=9.1U
M$72 \$68 \$67 \$954 VDDD pfet_03v3 L=0.28U W=3.9U AS=2.535P AD=2.535P PS=9.1U
+ PD=9.1U
M$73 \$955 \$68 VDDD VDDD pfet_03v3 L=0.28U W=3.9U AS=2.535P AD=2.535P PS=9.1U
+ PD=9.1U
M$74 \$69 \$478 \$955 VDDD pfet_03v3 L=0.28U W=3.9U AS=2.535P AD=2.535P PS=9.1U
+ PD=9.1U
M$75 \$67 \$124 \$69 VDDD pfet_03v3 L=0.28U W=3.9U AS=2.535P AD=2.535P PS=9.1U
+ PD=9.1U
M$76 \$71 \$124 \$68 VDDD pfet_03v3 L=0.28U W=3.9U AS=2.535P AD=2.535P PS=9.1U
+ PD=9.1U
M$77 \$956 \$478 VDDD VDDD pfet_03v3 L=0.28U W=3.9U AS=2.535P AD=2.535P PS=9.1U
+ PD=9.1U
M$78 \$72 \$71 \$956 VDDD pfet_03v3 L=0.28U W=3.9U AS=2.535P AD=2.535P PS=9.1U
+ PD=9.1U
M$79 \$957 \$72 VDDD VDDD pfet_03v3 L=0.28U W=3.9U AS=2.535P AD=2.535P PS=9.1U
+ PD=9.1U
M$80 \$70 \$3 \$957 VDDD pfet_03v3 L=0.28U W=3.9U AS=2.535P AD=2.535P PS=9.1U
+ PD=9.1U
M$81 \$71 \$125 \$70 VDDD pfet_03v3 L=0.28U W=3.9U AS=2.535P AD=2.535P PS=9.1U
+ PD=9.1U
M$82 \$73 \$128 \$72 VDDD pfet_03v3 L=0.28U W=3.9U AS=2.535P AD=2.535P PS=9.1U
+ PD=9.1U
M$83 \$958 \$3 VDDD VDDD pfet_03v3 L=0.28U W=3.9U AS=2.535P AD=2.535P PS=9.1U
+ PD=9.1U
M$84 \$74 \$73 \$958 VDDD pfet_03v3 L=0.28U W=3.9U AS=2.535P AD=2.535P PS=9.1U
+ PD=9.1U
M$85 \$959 \$74 VDDD VDDD pfet_03v3 L=0.28U W=3.9U AS=2.535P AD=2.535P PS=9.1U
+ PD=9.1U
M$86 \$75 \$478 \$959 VDDD pfet_03v3 L=0.28U W=3.9U AS=2.535P AD=2.535P PS=9.1U
+ PD=9.1U
M$87 \$73 \$127 \$75 VDDD pfet_03v3 L=0.28U W=3.9U AS=2.535P AD=2.535P PS=9.1U
+ PD=9.1U
M$88 \$77 \$127 \$74 VDDD pfet_03v3 L=0.28U W=3.9U AS=2.535P AD=2.535P PS=9.1U
+ PD=9.1U
M$89 \$960 \$478 VDDD VDDD pfet_03v3 L=0.28U W=3.9U AS=2.535P AD=2.535P PS=9.1U
+ PD=9.1U
M$90 \$78 \$77 \$960 VDDD pfet_03v3 L=0.28U W=3.9U AS=2.535P AD=2.535P PS=9.1U
+ PD=9.1U
M$91 \$961 \$78 VDDD VDDD pfet_03v3 L=0.28U W=3.9U AS=2.535P AD=2.535P PS=9.1U
+ PD=9.1U
M$92 \$76 \$3 \$961 VDDD pfet_03v3 L=0.28U W=3.9U AS=2.535P AD=2.535P PS=9.1U
+ PD=9.1U
M$93 \$77 \$128 \$76 VDDD pfet_03v3 L=0.28U W=3.9U AS=2.535P AD=2.535P PS=9.1U
+ PD=9.1U
M$94 \$79 \$131 \$78 VDDD pfet_03v3 L=0.28U W=3.9U AS=2.535P AD=2.535P PS=9.1U
+ PD=9.1U
M$95 \$962 \$3 VDDD VDDD pfet_03v3 L=0.28U W=3.9U AS=2.535P AD=2.535P PS=9.1U
+ PD=9.1U
M$96 \$80 \$79 \$962 VDDD pfet_03v3 L=0.28U W=3.9U AS=2.535P AD=2.535P PS=9.1U
+ PD=9.1U
M$97 \$963 \$80 VDDD VDDD pfet_03v3 L=0.28U W=3.9U AS=2.535P AD=2.535P PS=9.1U
+ PD=9.1U
M$98 \$81 \$478 \$963 VDDD pfet_03v3 L=0.28U W=3.9U AS=2.535P AD=2.535P PS=9.1U
+ PD=9.1U
M$99 \$79 \$130 \$81 VDDD pfet_03v3 L=0.28U W=3.9U AS=2.535P AD=2.535P PS=9.1U
+ PD=9.1U
M$100 \$83 \$130 \$80 VDDD pfet_03v3 L=0.28U W=3.9U AS=2.535P AD=2.535P PS=9.1U
+ PD=9.1U
M$101 \$964 \$478 VDDD VDDD pfet_03v3 L=0.28U W=3.9U AS=2.535P AD=2.535P
+ PS=9.1U PD=9.1U
M$102 \$84 \$83 \$964 VDDD pfet_03v3 L=0.28U W=3.9U AS=2.535P AD=2.535P PS=9.1U
+ PD=9.1U
M$103 \$965 \$84 VDDD VDDD pfet_03v3 L=0.28U W=3.9U AS=2.535P AD=2.535P PS=9.1U
+ PD=9.1U
M$104 \$82 \$3 \$965 VDDD pfet_03v3 L=0.28U W=3.9U AS=2.535P AD=2.535P PS=9.1U
+ PD=9.1U
M$105 \$83 \$131 \$82 VDDD pfet_03v3 L=0.28U W=3.9U AS=2.535P AD=2.535P PS=9.1U
+ PD=9.1U
M$106 \$85 \$134 \$84 VDDD pfet_03v3 L=0.28U W=3.9U AS=2.535P AD=2.535P PS=9.1U
+ PD=9.1U
M$107 \$966 \$3 VDDD VDDD pfet_03v3 L=0.28U W=3.9U AS=2.535P AD=2.535P PS=9.1U
+ PD=9.1U
M$108 \$86 \$85 \$966 VDDD pfet_03v3 L=0.28U W=3.9U AS=2.535P AD=2.535P PS=9.1U
+ PD=9.1U
M$109 \$967 \$86 VDDD VDDD pfet_03v3 L=0.28U W=3.9U AS=2.535P AD=2.535P PS=9.1U
+ PD=9.1U
M$110 \$87 \$478 \$967 VDDD pfet_03v3 L=0.28U W=3.9U AS=2.535P AD=2.535P
+ PS=9.1U PD=9.1U
M$111 \$85 \$133 \$87 VDDD pfet_03v3 L=0.28U W=3.9U AS=2.535P AD=2.535P PS=9.1U
+ PD=9.1U
M$112 \$89 \$133 \$86 VDDD pfet_03v3 L=0.28U W=3.9U AS=2.535P AD=2.535P PS=9.1U
+ PD=9.1U
M$113 \$968 \$478 VDDD VDDD pfet_03v3 L=0.28U W=3.9U AS=2.535P AD=2.535P
+ PS=9.1U PD=9.1U
M$114 \$90 \$89 \$968 VDDD pfet_03v3 L=0.28U W=3.9U AS=2.535P AD=2.535P PS=9.1U
+ PD=9.1U
M$115 \$969 \$90 VDDD VDDD pfet_03v3 L=0.28U W=3.9U AS=2.535P AD=2.535P PS=9.1U
+ PD=9.1U
M$116 \$88 \$3 \$969 VDDD pfet_03v3 L=0.28U W=3.9U AS=2.535P AD=2.535P PS=9.1U
+ PD=9.1U
M$117 \$89 \$134 \$88 VDDD pfet_03v3 L=0.28U W=3.9U AS=2.535P AD=2.535P PS=9.1U
+ PD=9.1U
M$118 \$91 \$137 \$90 VDDD pfet_03v3 L=0.28U W=3.9U AS=2.535P AD=2.535P PS=9.1U
+ PD=9.1U
M$119 \$970 \$3 VDDD VDDD pfet_03v3 L=0.28U W=3.9U AS=2.535P AD=2.535P PS=9.1U
+ PD=9.1U
M$120 \$92 \$91 \$970 VDDD pfet_03v3 L=0.28U W=3.9U AS=2.535P AD=2.535P PS=9.1U
+ PD=9.1U
M$121 \$971 \$92 VDDD VDDD pfet_03v3 L=0.28U W=3.9U AS=2.535P AD=2.535P PS=9.1U
+ PD=9.1U
M$122 \$93 \$478 \$971 VDDD pfet_03v3 L=0.28U W=3.9U AS=2.535P AD=2.535P
+ PS=9.1U PD=9.1U
M$123 \$91 \$136 \$93 VDDD pfet_03v3 L=0.28U W=3.9U AS=2.535P AD=2.535P PS=9.1U
+ PD=9.1U
M$124 \$95 \$136 \$92 VDDD pfet_03v3 L=0.28U W=3.9U AS=2.535P AD=2.535P PS=9.1U
+ PD=9.1U
M$125 \$972 \$478 VDDD VDDD pfet_03v3 L=0.28U W=3.9U AS=2.535P AD=2.535P
+ PS=9.1U PD=9.1U
M$126 \$96 \$95 \$972 VDDD pfet_03v3 L=0.28U W=3.9U AS=2.535P AD=2.535P PS=9.1U
+ PD=9.1U
M$127 \$973 \$96 VDDD VDDD pfet_03v3 L=0.28U W=3.9U AS=2.535P AD=2.535P PS=9.1U
+ PD=9.1U
M$128 \$94 \$3 \$973 VDDD pfet_03v3 L=0.28U W=3.9U AS=2.535P AD=2.535P PS=9.1U
+ PD=9.1U
M$129 \$95 \$137 \$94 VDDD pfet_03v3 L=0.28U W=3.9U AS=2.535P AD=2.535P PS=9.1U
+ PD=9.1U
M$130 \$97 \$140 \$96 VDDD pfet_03v3 L=0.28U W=3.9U AS=2.535P AD=2.535P PS=9.1U
+ PD=9.1U
M$131 \$974 \$3 VDDD VDDD pfet_03v3 L=0.28U W=3.9U AS=2.535P AD=2.535P PS=9.1U
+ PD=9.1U
M$132 \$98 \$97 \$974 VDDD pfet_03v3 L=0.28U W=3.9U AS=2.535P AD=2.535P PS=9.1U
+ PD=9.1U
M$133 \$975 \$98 VDDD VDDD pfet_03v3 L=0.28U W=3.9U AS=2.535P AD=2.535P PS=9.1U
+ PD=9.1U
M$134 \$99 \$478 \$975 VDDD pfet_03v3 L=0.28U W=3.9U AS=2.535P AD=2.535P
+ PS=9.1U PD=9.1U
M$135 \$97 \$139 \$99 VDDD pfet_03v3 L=0.28U W=3.9U AS=2.535P AD=2.535P PS=9.1U
+ PD=9.1U
M$136 \$101 \$139 \$98 VDDD pfet_03v3 L=0.28U W=3.9U AS=2.535P AD=2.535P
+ PS=9.1U PD=9.1U
M$137 \$976 \$478 VDDD VDDD pfet_03v3 L=0.28U W=3.9U AS=2.535P AD=2.535P
+ PS=9.1U PD=9.1U
M$138 \$102 \$101 \$976 VDDD pfet_03v3 L=0.28U W=3.9U AS=2.535P AD=2.535P
+ PS=9.1U PD=9.1U
M$139 \$977 \$102 VDDD VDDD pfet_03v3 L=0.28U W=3.9U AS=2.535P AD=2.535P
+ PS=9.1U PD=9.1U
M$140 \$100 \$3 \$977 VDDD pfet_03v3 L=0.28U W=3.9U AS=2.535P AD=2.535P PS=9.1U
+ PD=9.1U
M$141 \$101 \$140 \$100 VDDD pfet_03v3 L=0.28U W=3.9U AS=2.535P AD=2.535P
+ PS=9.1U PD=9.1U
M$142 \$103 \$143 \$102 VDDD pfet_03v3 L=0.28U W=3.9U AS=2.535P AD=2.535P
+ PS=9.1U PD=9.1U
M$143 \$978 \$3 VDDD VDDD pfet_03v3 L=0.28U W=3.9U AS=2.535P AD=2.535P PS=9.1U
+ PD=9.1U
M$144 \$104 \$103 \$978 VDDD pfet_03v3 L=0.28U W=3.9U AS=2.535P AD=2.535P
+ PS=9.1U PD=9.1U
M$145 \$979 \$104 VDDD VDDD pfet_03v3 L=0.28U W=3.9U AS=2.535P AD=2.535P
+ PS=9.1U PD=9.1U
M$146 \$105 \$478 \$979 VDDD pfet_03v3 L=0.28U W=3.9U AS=2.535P AD=2.535P
+ PS=9.1U PD=9.1U
M$147 \$103 \$142 \$105 VDDD pfet_03v3 L=0.28U W=3.9U AS=2.535P AD=2.535P
+ PS=9.1U PD=9.1U
M$148 \$107 \$142 \$104 VDDD pfet_03v3 L=0.28U W=3.9U AS=2.535P AD=2.535P
+ PS=9.1U PD=9.1U
M$149 \$980 \$478 VDDD VDDD pfet_03v3 L=0.28U W=3.9U AS=2.535P AD=2.535P
+ PS=9.1U PD=9.1U
M$150 \$108 \$107 \$980 VDDD pfet_03v3 L=0.28U W=3.9U AS=2.535P AD=2.535P
+ PS=9.1U PD=9.1U
M$151 \$981 \$108 VDDD VDDD pfet_03v3 L=0.28U W=3.9U AS=2.535P AD=2.535P
+ PS=9.1U PD=9.1U
M$152 \$106 \$3 \$981 VDDD pfet_03v3 L=0.28U W=3.9U AS=2.535P AD=2.535P PS=9.1U
+ PD=9.1U
M$153 \$107 \$143 \$106 VDDD pfet_03v3 L=0.28U W=3.9U AS=2.535P AD=2.535P
+ PS=9.1U PD=9.1U
M$154 \$109 \$146 \$108 VDDD pfet_03v3 L=0.28U W=3.9U AS=2.535P AD=2.535P
+ PS=9.1U PD=9.1U
M$155 \$982 \$3 VDDD VDDD pfet_03v3 L=0.28U W=3.9U AS=2.535P AD=2.535P PS=9.1U
+ PD=9.1U
M$156 \$110 \$109 \$982 VDDD pfet_03v3 L=0.28U W=3.9U AS=2.535P AD=2.535P
+ PS=9.1U PD=9.1U
M$157 \$983 \$110 VDDD VDDD pfet_03v3 L=0.28U W=3.9U AS=2.535P AD=2.535P
+ PS=9.1U PD=9.1U
M$158 \$111 \$478 \$983 VDDD pfet_03v3 L=0.28U W=3.9U AS=2.535P AD=2.535P
+ PS=9.1U PD=9.1U
M$159 \$109 \$145 \$111 VDDD pfet_03v3 L=0.28U W=3.9U AS=2.535P AD=2.535P
+ PS=9.1U PD=9.1U
M$160 \$114 \$145 \$110 VDDD pfet_03v3 L=0.28U W=3.9U AS=2.535P AD=2.535P
+ PS=9.1U PD=9.1U
M$161 \$984 \$478 VDDD VDDD pfet_03v3 L=0.28U W=3.9U AS=2.535P AD=2.535P
+ PS=9.1U PD=9.1U
M$162 \$112 \$114 \$984 VDDD pfet_03v3 L=0.28U W=3.9U AS=2.535P AD=2.535P
+ PS=9.1U PD=9.1U
M$163 \$985 \$112 VDDD VDDD pfet_03v3 L=0.28U W=3.9U AS=2.535P AD=2.535P
+ PS=9.1U PD=9.1U
M$164 \$113 \$3 \$985 VDDD pfet_03v3 L=0.28U W=3.9U AS=2.535P AD=2.535P PS=9.1U
+ PD=9.1U
M$165 \$114 \$146 \$113 VDDD pfet_03v3 L=0.28U W=3.9U AS=2.535P AD=2.535P
+ PS=9.1U PD=9.1U
M$166 \$49 \$115 D VSSD nfet_03v3 L=0.28U W=1.56U AS=0.9516P AD=0.9516P
+ PS=4.34U PD=4.34U
M$167 \$50 \$3 VSSD VSSD nfet_03v3 L=0.28U W=1.56U AS=0.9516P AD=0.9516P
+ PS=4.34U PD=4.34U
M$168 VSSD \$49 \$50 VSSD nfet_03v3 L=0.28U W=1.56U AS=0.9516P AD=0.9516P
+ PS=4.34U PD=4.34U
M$169 \$51 \$50 VSSD VSSD nfet_03v3 L=0.28U W=1.56U AS=0.9516P AD=0.9516P
+ PS=4.34U PD=4.34U
M$170 VSSD \$478 \$51 VSSD nfet_03v3 L=0.28U W=1.56U AS=0.9516P AD=0.9516P
+ PS=4.34U PD=4.34U
M$171 \$49 \$116 \$51 VSSD nfet_03v3 L=0.28U W=1.56U AS=0.9516P AD=0.9516P
+ PS=4.34U PD=4.34U
M$172 \$53 \$116 \$50 VSSD nfet_03v3 L=0.28U W=1.56U AS=0.9516P AD=0.9516P
+ PS=4.34U PD=4.34U
M$173 \$54 \$478 VSSD VSSD nfet_03v3 L=0.28U W=1.56U AS=0.9516P AD=0.9516P
+ PS=4.34U PD=4.34U
M$174 VSSD \$53 \$54 VSSD nfet_03v3 L=0.28U W=1.56U AS=0.9516P AD=0.9516P
+ PS=4.34U PD=4.34U
M$175 \$52 \$54 VSSD VSSD nfet_03v3 L=0.28U W=1.56U AS=0.9516P AD=0.9516P
+ PS=4.34U PD=4.34U
M$176 VSSD \$3 \$52 VSSD nfet_03v3 L=0.28U W=1.56U AS=0.9516P AD=0.9516P
+ PS=4.34U PD=4.34U
M$177 \$53 \$115 \$52 VSSD nfet_03v3 L=0.28U W=1.56U AS=0.9516P AD=0.9516P
+ PS=4.34U PD=4.34U
M$178 \$55 \$118 \$54 VSSD nfet_03v3 L=0.28U W=1.56U AS=0.9516P AD=0.9516P
+ PS=4.34U PD=4.34U
M$179 \$56 \$3 VSSD VSSD nfet_03v3 L=0.28U W=1.56U AS=0.9516P AD=0.9516P
+ PS=4.34U PD=4.34U
M$180 VSSD \$55 \$56 VSSD nfet_03v3 L=0.28U W=1.56U AS=0.9516P AD=0.9516P
+ PS=4.34U PD=4.34U
M$181 \$57 \$56 VSSD VSSD nfet_03v3 L=0.28U W=1.56U AS=0.9516P AD=0.9516P
+ PS=4.34U PD=4.34U
M$182 VSSD \$478 \$57 VSSD nfet_03v3 L=0.28U W=1.56U AS=0.9516P AD=0.9516P
+ PS=4.34U PD=4.34U
M$183 \$55 \$119 \$57 VSSD nfet_03v3 L=0.28U W=1.56U AS=0.9516P AD=0.9516P
+ PS=4.34U PD=4.34U
M$184 \$59 \$119 \$56 VSSD nfet_03v3 L=0.28U W=1.56U AS=0.9516P AD=0.9516P
+ PS=4.34U PD=4.34U
M$185 \$60 \$478 VSSD VSSD nfet_03v3 L=0.28U W=1.56U AS=0.9516P AD=0.9516P
+ PS=4.34U PD=4.34U
M$186 VSSD \$59 \$60 VSSD nfet_03v3 L=0.28U W=1.56U AS=0.9516P AD=0.9516P
+ PS=4.34U PD=4.34U
M$187 \$58 \$60 VSSD VSSD nfet_03v3 L=0.28U W=1.56U AS=0.9516P AD=0.9516P
+ PS=4.34U PD=4.34U
M$188 VSSD \$3 \$58 VSSD nfet_03v3 L=0.28U W=1.56U AS=0.9516P AD=0.9516P
+ PS=4.34U PD=4.34U
M$189 \$59 \$118 \$58 VSSD nfet_03v3 L=0.28U W=1.56U AS=0.9516P AD=0.9516P
+ PS=4.34U PD=4.34U
M$190 \$61 \$121 \$60 VSSD nfet_03v3 L=0.28U W=1.56U AS=0.9516P AD=0.9516P
+ PS=4.34U PD=4.34U
M$191 \$62 \$3 VSSD VSSD nfet_03v3 L=0.28U W=1.56U AS=0.9516P AD=0.9516P
+ PS=4.34U PD=4.34U
M$192 VSSD \$61 \$62 VSSD nfet_03v3 L=0.28U W=1.56U AS=0.9516P AD=0.9516P
+ PS=4.34U PD=4.34U
M$193 \$63 \$62 VSSD VSSD nfet_03v3 L=0.28U W=1.56U AS=0.9516P AD=0.9516P
+ PS=4.34U PD=4.34U
M$194 VSSD \$478 \$63 VSSD nfet_03v3 L=0.28U W=1.56U AS=0.9516P AD=0.9516P
+ PS=4.34U PD=4.34U
M$195 \$61 \$122 \$63 VSSD nfet_03v3 L=0.28U W=1.56U AS=0.9516P AD=0.9516P
+ PS=4.34U PD=4.34U
M$196 \$65 \$122 \$62 VSSD nfet_03v3 L=0.28U W=1.56U AS=0.9516P AD=0.9516P
+ PS=4.34U PD=4.34U
M$197 \$66 \$478 VSSD VSSD nfet_03v3 L=0.28U W=1.56U AS=0.9516P AD=0.9516P
+ PS=4.34U PD=4.34U
M$198 VSSD \$65 \$66 VSSD nfet_03v3 L=0.28U W=1.56U AS=0.9516P AD=0.9516P
+ PS=4.34U PD=4.34U
M$199 \$64 \$66 VSSD VSSD nfet_03v3 L=0.28U W=1.56U AS=0.9516P AD=0.9516P
+ PS=4.34U PD=4.34U
M$200 VSSD \$3 \$64 VSSD nfet_03v3 L=0.28U W=1.56U AS=0.9516P AD=0.9516P
+ PS=4.34U PD=4.34U
M$201 \$65 \$121 \$64 VSSD nfet_03v3 L=0.28U W=1.56U AS=0.9516P AD=0.9516P
+ PS=4.34U PD=4.34U
M$202 \$67 \$124 \$66 VSSD nfet_03v3 L=0.28U W=1.56U AS=0.9516P AD=0.9516P
+ PS=4.34U PD=4.34U
M$203 \$68 \$3 VSSD VSSD nfet_03v3 L=0.28U W=1.56U AS=0.9516P AD=0.9516P
+ PS=4.34U PD=4.34U
M$204 VSSD \$67 \$68 VSSD nfet_03v3 L=0.28U W=1.56U AS=0.9516P AD=0.9516P
+ PS=4.34U PD=4.34U
M$205 \$69 \$68 VSSD VSSD nfet_03v3 L=0.28U W=1.56U AS=0.9516P AD=0.9516P
+ PS=4.34U PD=4.34U
M$206 VSSD \$478 \$69 VSSD nfet_03v3 L=0.28U W=1.56U AS=0.9516P AD=0.9516P
+ PS=4.34U PD=4.34U
M$207 \$67 \$125 \$69 VSSD nfet_03v3 L=0.28U W=1.56U AS=0.9516P AD=0.9516P
+ PS=4.34U PD=4.34U
M$208 \$71 \$125 \$68 VSSD nfet_03v3 L=0.28U W=1.56U AS=0.9516P AD=0.9516P
+ PS=4.34U PD=4.34U
M$209 \$72 \$478 VSSD VSSD nfet_03v3 L=0.28U W=1.56U AS=0.9516P AD=0.9516P
+ PS=4.34U PD=4.34U
M$210 VSSD \$71 \$72 VSSD nfet_03v3 L=0.28U W=1.56U AS=0.9516P AD=0.9516P
+ PS=4.34U PD=4.34U
M$211 \$70 \$72 VSSD VSSD nfet_03v3 L=0.28U W=1.56U AS=0.9516P AD=0.9516P
+ PS=4.34U PD=4.34U
M$212 VSSD \$3 \$70 VSSD nfet_03v3 L=0.28U W=1.56U AS=0.9516P AD=0.9516P
+ PS=4.34U PD=4.34U
M$213 \$71 \$124 \$70 VSSD nfet_03v3 L=0.28U W=1.56U AS=0.9516P AD=0.9516P
+ PS=4.34U PD=4.34U
M$214 \$73 \$127 \$72 VSSD nfet_03v3 L=0.28U W=1.56U AS=0.9516P AD=0.9516P
+ PS=4.34U PD=4.34U
M$215 \$74 \$3 VSSD VSSD nfet_03v3 L=0.28U W=1.56U AS=0.9516P AD=0.9516P
+ PS=4.34U PD=4.34U
M$216 VSSD \$73 \$74 VSSD nfet_03v3 L=0.28U W=1.56U AS=0.9516P AD=0.9516P
+ PS=4.34U PD=4.34U
M$217 \$75 \$74 VSSD VSSD nfet_03v3 L=0.28U W=1.56U AS=0.9516P AD=0.9516P
+ PS=4.34U PD=4.34U
M$218 VSSD \$478 \$75 VSSD nfet_03v3 L=0.28U W=1.56U AS=0.9516P AD=0.9516P
+ PS=4.34U PD=4.34U
M$219 \$73 \$128 \$75 VSSD nfet_03v3 L=0.28U W=1.56U AS=0.9516P AD=0.9516P
+ PS=4.34U PD=4.34U
M$220 \$77 \$128 \$74 VSSD nfet_03v3 L=0.28U W=1.56U AS=0.9516P AD=0.9516P
+ PS=4.34U PD=4.34U
M$221 \$78 \$478 VSSD VSSD nfet_03v3 L=0.28U W=1.56U AS=0.9516P AD=0.9516P
+ PS=4.34U PD=4.34U
M$222 VSSD \$77 \$78 VSSD nfet_03v3 L=0.28U W=1.56U AS=0.9516P AD=0.9516P
+ PS=4.34U PD=4.34U
M$223 \$76 \$78 VSSD VSSD nfet_03v3 L=0.28U W=1.56U AS=0.9516P AD=0.9516P
+ PS=4.34U PD=4.34U
M$224 VSSD \$3 \$76 VSSD nfet_03v3 L=0.28U W=1.56U AS=0.9516P AD=0.9516P
+ PS=4.34U PD=4.34U
M$225 \$77 \$127 \$76 VSSD nfet_03v3 L=0.28U W=1.56U AS=0.9516P AD=0.9516P
+ PS=4.34U PD=4.34U
M$226 \$79 \$130 \$78 VSSD nfet_03v3 L=0.28U W=1.56U AS=0.9516P AD=0.9516P
+ PS=4.34U PD=4.34U
M$227 \$80 \$3 VSSD VSSD nfet_03v3 L=0.28U W=1.56U AS=0.9516P AD=0.9516P
+ PS=4.34U PD=4.34U
M$228 VSSD \$79 \$80 VSSD nfet_03v3 L=0.28U W=1.56U AS=0.9516P AD=0.9516P
+ PS=4.34U PD=4.34U
M$229 \$81 \$80 VSSD VSSD nfet_03v3 L=0.28U W=1.56U AS=0.9516P AD=0.9516P
+ PS=4.34U PD=4.34U
M$230 VSSD \$478 \$81 VSSD nfet_03v3 L=0.28U W=1.56U AS=0.9516P AD=0.9516P
+ PS=4.34U PD=4.34U
M$231 \$79 \$131 \$81 VSSD nfet_03v3 L=0.28U W=1.56U AS=0.9516P AD=0.9516P
+ PS=4.34U PD=4.34U
M$232 \$83 \$131 \$80 VSSD nfet_03v3 L=0.28U W=1.56U AS=0.9516P AD=0.9516P
+ PS=4.34U PD=4.34U
M$233 \$84 \$478 VSSD VSSD nfet_03v3 L=0.28U W=1.56U AS=0.9516P AD=0.9516P
+ PS=4.34U PD=4.34U
M$234 VSSD \$83 \$84 VSSD nfet_03v3 L=0.28U W=1.56U AS=0.9516P AD=0.9516P
+ PS=4.34U PD=4.34U
M$235 \$82 \$84 VSSD VSSD nfet_03v3 L=0.28U W=1.56U AS=0.9516P AD=0.9516P
+ PS=4.34U PD=4.34U
M$236 VSSD \$3 \$82 VSSD nfet_03v3 L=0.28U W=1.56U AS=0.9516P AD=0.9516P
+ PS=4.34U PD=4.34U
M$237 \$83 \$130 \$82 VSSD nfet_03v3 L=0.28U W=1.56U AS=0.9516P AD=0.9516P
+ PS=4.34U PD=4.34U
M$238 \$85 \$133 \$84 VSSD nfet_03v3 L=0.28U W=1.56U AS=0.9516P AD=0.9516P
+ PS=4.34U PD=4.34U
M$239 \$86 \$3 VSSD VSSD nfet_03v3 L=0.28U W=1.56U AS=0.9516P AD=0.9516P
+ PS=4.34U PD=4.34U
M$240 VSSD \$85 \$86 VSSD nfet_03v3 L=0.28U W=1.56U AS=0.9516P AD=0.9516P
+ PS=4.34U PD=4.34U
M$241 \$87 \$86 VSSD VSSD nfet_03v3 L=0.28U W=1.56U AS=0.9516P AD=0.9516P
+ PS=4.34U PD=4.34U
M$242 VSSD \$478 \$87 VSSD nfet_03v3 L=0.28U W=1.56U AS=0.9516P AD=0.9516P
+ PS=4.34U PD=4.34U
M$243 \$85 \$134 \$87 VSSD nfet_03v3 L=0.28U W=1.56U AS=0.9516P AD=0.9516P
+ PS=4.34U PD=4.34U
M$244 \$89 \$134 \$86 VSSD nfet_03v3 L=0.28U W=1.56U AS=0.9516P AD=0.9516P
+ PS=4.34U PD=4.34U
M$245 \$90 \$478 VSSD VSSD nfet_03v3 L=0.28U W=1.56U AS=0.9516P AD=0.9516P
+ PS=4.34U PD=4.34U
M$246 VSSD \$89 \$90 VSSD nfet_03v3 L=0.28U W=1.56U AS=0.9516P AD=0.9516P
+ PS=4.34U PD=4.34U
M$247 \$88 \$90 VSSD VSSD nfet_03v3 L=0.28U W=1.56U AS=0.9516P AD=0.9516P
+ PS=4.34U PD=4.34U
M$248 VSSD \$3 \$88 VSSD nfet_03v3 L=0.28U W=1.56U AS=0.9516P AD=0.9516P
+ PS=4.34U PD=4.34U
M$249 \$89 \$133 \$88 VSSD nfet_03v3 L=0.28U W=1.56U AS=0.9516P AD=0.9516P
+ PS=4.34U PD=4.34U
M$250 \$91 \$136 \$90 VSSD nfet_03v3 L=0.28U W=1.56U AS=0.9516P AD=0.9516P
+ PS=4.34U PD=4.34U
M$251 \$92 \$3 VSSD VSSD nfet_03v3 L=0.28U W=1.56U AS=0.9516P AD=0.9516P
+ PS=4.34U PD=4.34U
M$252 VSSD \$91 \$92 VSSD nfet_03v3 L=0.28U W=1.56U AS=0.9516P AD=0.9516P
+ PS=4.34U PD=4.34U
M$253 \$93 \$92 VSSD VSSD nfet_03v3 L=0.28U W=1.56U AS=0.9516P AD=0.9516P
+ PS=4.34U PD=4.34U
M$254 VSSD \$478 \$93 VSSD nfet_03v3 L=0.28U W=1.56U AS=0.9516P AD=0.9516P
+ PS=4.34U PD=4.34U
M$255 \$91 \$137 \$93 VSSD nfet_03v3 L=0.28U W=1.56U AS=0.9516P AD=0.9516P
+ PS=4.34U PD=4.34U
M$256 \$95 \$137 \$92 VSSD nfet_03v3 L=0.28U W=1.56U AS=0.9516P AD=0.9516P
+ PS=4.34U PD=4.34U
M$257 \$96 \$478 VSSD VSSD nfet_03v3 L=0.28U W=1.56U AS=0.9516P AD=0.9516P
+ PS=4.34U PD=4.34U
M$258 VSSD \$95 \$96 VSSD nfet_03v3 L=0.28U W=1.56U AS=0.9516P AD=0.9516P
+ PS=4.34U PD=4.34U
M$259 \$94 \$96 VSSD VSSD nfet_03v3 L=0.28U W=1.56U AS=0.9516P AD=0.9516P
+ PS=4.34U PD=4.34U
M$260 VSSD \$3 \$94 VSSD nfet_03v3 L=0.28U W=1.56U AS=0.9516P AD=0.9516P
+ PS=4.34U PD=4.34U
M$261 \$95 \$136 \$94 VSSD nfet_03v3 L=0.28U W=1.56U AS=0.9516P AD=0.9516P
+ PS=4.34U PD=4.34U
M$262 \$97 \$139 \$96 VSSD nfet_03v3 L=0.28U W=1.56U AS=0.9516P AD=0.9516P
+ PS=4.34U PD=4.34U
M$263 \$98 \$3 VSSD VSSD nfet_03v3 L=0.28U W=1.56U AS=0.9516P AD=0.9516P
+ PS=4.34U PD=4.34U
M$264 VSSD \$97 \$98 VSSD nfet_03v3 L=0.28U W=1.56U AS=0.9516P AD=0.9516P
+ PS=4.34U PD=4.34U
M$265 \$99 \$98 VSSD VSSD nfet_03v3 L=0.28U W=1.56U AS=0.9516P AD=0.9516P
+ PS=4.34U PD=4.34U
M$266 VSSD \$478 \$99 VSSD nfet_03v3 L=0.28U W=1.56U AS=0.9516P AD=0.9516P
+ PS=4.34U PD=4.34U
M$267 \$97 \$140 \$99 VSSD nfet_03v3 L=0.28U W=1.56U AS=0.9516P AD=0.9516P
+ PS=4.34U PD=4.34U
M$268 \$101 \$140 \$98 VSSD nfet_03v3 L=0.28U W=1.56U AS=0.9516P AD=0.9516P
+ PS=4.34U PD=4.34U
M$269 \$102 \$478 VSSD VSSD nfet_03v3 L=0.28U W=1.56U AS=0.9516P AD=0.9516P
+ PS=4.34U PD=4.34U
M$270 VSSD \$101 \$102 VSSD nfet_03v3 L=0.28U W=1.56U AS=0.9516P AD=0.9516P
+ PS=4.34U PD=4.34U
M$271 \$100 \$102 VSSD VSSD nfet_03v3 L=0.28U W=1.56U AS=0.9516P AD=0.9516P
+ PS=4.34U PD=4.34U
M$272 VSSD \$3 \$100 VSSD nfet_03v3 L=0.28U W=1.56U AS=0.9516P AD=0.9516P
+ PS=4.34U PD=4.34U
M$273 \$101 \$139 \$100 VSSD nfet_03v3 L=0.28U W=1.56U AS=0.9516P AD=0.9516P
+ PS=4.34U PD=4.34U
M$274 \$103 \$142 \$102 VSSD nfet_03v3 L=0.28U W=1.56U AS=0.9516P AD=0.9516P
+ PS=4.34U PD=4.34U
M$275 \$104 \$3 VSSD VSSD nfet_03v3 L=0.28U W=1.56U AS=0.9516P AD=0.9516P
+ PS=4.34U PD=4.34U
M$276 VSSD \$103 \$104 VSSD nfet_03v3 L=0.28U W=1.56U AS=0.9516P AD=0.9516P
+ PS=4.34U PD=4.34U
M$277 \$105 \$104 VSSD VSSD nfet_03v3 L=0.28U W=1.56U AS=0.9516P AD=0.9516P
+ PS=4.34U PD=4.34U
M$278 VSSD \$478 \$105 VSSD nfet_03v3 L=0.28U W=1.56U AS=0.9516P AD=0.9516P
+ PS=4.34U PD=4.34U
M$279 \$103 \$143 \$105 VSSD nfet_03v3 L=0.28U W=1.56U AS=0.9516P AD=0.9516P
+ PS=4.34U PD=4.34U
M$280 \$107 \$143 \$104 VSSD nfet_03v3 L=0.28U W=1.56U AS=0.9516P AD=0.9516P
+ PS=4.34U PD=4.34U
M$281 \$108 \$478 VSSD VSSD nfet_03v3 L=0.28U W=1.56U AS=0.9516P AD=0.9516P
+ PS=4.34U PD=4.34U
M$282 VSSD \$107 \$108 VSSD nfet_03v3 L=0.28U W=1.56U AS=0.9516P AD=0.9516P
+ PS=4.34U PD=4.34U
M$283 \$106 \$108 VSSD VSSD nfet_03v3 L=0.28U W=1.56U AS=0.9516P AD=0.9516P
+ PS=4.34U PD=4.34U
M$284 VSSD \$3 \$106 VSSD nfet_03v3 L=0.28U W=1.56U AS=0.9516P AD=0.9516P
+ PS=4.34U PD=4.34U
M$285 \$107 \$142 \$106 VSSD nfet_03v3 L=0.28U W=1.56U AS=0.9516P AD=0.9516P
+ PS=4.34U PD=4.34U
M$286 \$109 \$145 \$108 VSSD nfet_03v3 L=0.28U W=1.56U AS=0.9516P AD=0.9516P
+ PS=4.34U PD=4.34U
M$287 \$110 \$3 VSSD VSSD nfet_03v3 L=0.28U W=1.56U AS=0.9516P AD=0.9516P
+ PS=4.34U PD=4.34U
M$288 VSSD \$109 \$110 VSSD nfet_03v3 L=0.28U W=1.56U AS=0.9516P AD=0.9516P
+ PS=4.34U PD=4.34U
M$289 \$111 \$110 VSSD VSSD nfet_03v3 L=0.28U W=1.56U AS=0.9516P AD=0.9516P
+ PS=4.34U PD=4.34U
M$290 VSSD \$478 \$111 VSSD nfet_03v3 L=0.28U W=1.56U AS=0.9516P AD=0.9516P
+ PS=4.34U PD=4.34U
M$291 \$109 \$146 \$111 VSSD nfet_03v3 L=0.28U W=1.56U AS=0.9516P AD=0.9516P
+ PS=4.34U PD=4.34U
M$292 \$114 \$146 \$110 VSSD nfet_03v3 L=0.28U W=1.56U AS=0.9516P AD=0.9516P
+ PS=4.34U PD=4.34U
M$293 \$112 \$478 VSSD VSSD nfet_03v3 L=0.28U W=1.56U AS=0.9516P AD=0.9516P
+ PS=4.34U PD=4.34U
M$294 VSSD \$114 \$112 VSSD nfet_03v3 L=0.28U W=1.56U AS=0.9516P AD=0.9516P
+ PS=4.34U PD=4.34U
M$295 \$113 \$112 VSSD VSSD nfet_03v3 L=0.28U W=1.56U AS=0.9516P AD=0.9516P
+ PS=4.34U PD=4.34U
M$296 VSSD \$3 \$113 VSSD nfet_03v3 L=0.28U W=1.56U AS=0.9516P AD=0.9516P
+ PS=4.34U PD=4.34U
M$297 \$114 \$145 \$113 VSSD nfet_03v3 L=0.28U W=1.56U AS=0.9516P AD=0.9516P
+ PS=4.34U PD=4.34U
M$298 \$115 \$2 VSSD VSSD nfet_03v3 L=0.28U W=1.56U AS=0.9516P AD=0.9516P
+ PS=4.34U PD=4.34U
M$299 \$116 \$115 VSSD VSSD nfet_03v3 L=0.28U W=1.56U AS=0.9516P AD=0.9516P
+ PS=4.34U PD=4.34U
M$300 \$117 \$54 VSSD VSSD nfet_03v3 L=0.28U W=1.56U AS=0.9516P AD=0.9516P
+ PS=4.34U PD=4.34U
M$301 \$118 \$2 VSSD VSSD nfet_03v3 L=0.28U W=1.56U AS=0.9516P AD=0.9516P
+ PS=4.34U PD=4.34U
M$302 \$119 \$118 VSSD VSSD nfet_03v3 L=0.28U W=1.56U AS=0.9516P AD=0.9516P
+ PS=4.34U PD=4.34U
M$303 \$120 \$60 VSSD VSSD nfet_03v3 L=0.28U W=1.56U AS=0.9516P AD=0.9516P
+ PS=4.34U PD=4.34U
M$304 \$121 \$2 VSSD VSSD nfet_03v3 L=0.28U W=1.56U AS=0.9516P AD=0.9516P
+ PS=4.34U PD=4.34U
M$305 \$122 \$121 VSSD VSSD nfet_03v3 L=0.28U W=1.56U AS=0.9516P AD=0.9516P
+ PS=4.34U PD=4.34U
M$306 \$123 \$66 VSSD VSSD nfet_03v3 L=0.28U W=1.56U AS=0.9516P AD=0.9516P
+ PS=4.34U PD=4.34U
M$307 \$124 \$2 VSSD VSSD nfet_03v3 L=0.28U W=1.56U AS=0.9516P AD=0.9516P
+ PS=4.34U PD=4.34U
M$308 \$125 \$124 VSSD VSSD nfet_03v3 L=0.28U W=1.56U AS=0.9516P AD=0.9516P
+ PS=4.34U PD=4.34U
M$309 \$126 \$72 VSSD VSSD nfet_03v3 L=0.28U W=1.56U AS=0.9516P AD=0.9516P
+ PS=4.34U PD=4.34U
M$310 \$127 \$2 VSSD VSSD nfet_03v3 L=0.28U W=1.56U AS=0.9516P AD=0.9516P
+ PS=4.34U PD=4.34U
M$311 \$128 \$127 VSSD VSSD nfet_03v3 L=0.28U W=1.56U AS=0.9516P AD=0.9516P
+ PS=4.34U PD=4.34U
M$312 \$129 \$78 VSSD VSSD nfet_03v3 L=0.28U W=1.56U AS=0.9516P AD=0.9516P
+ PS=4.34U PD=4.34U
M$313 \$130 \$2 VSSD VSSD nfet_03v3 L=0.28U W=1.56U AS=0.9516P AD=0.9516P
+ PS=4.34U PD=4.34U
M$314 \$131 \$130 VSSD VSSD nfet_03v3 L=0.28U W=1.56U AS=0.9516P AD=0.9516P
+ PS=4.34U PD=4.34U
M$315 \$132 \$84 VSSD VSSD nfet_03v3 L=0.28U W=1.56U AS=0.9516P AD=0.9516P
+ PS=4.34U PD=4.34U
M$316 \$133 \$2 VSSD VSSD nfet_03v3 L=0.28U W=1.56U AS=0.9516P AD=0.9516P
+ PS=4.34U PD=4.34U
M$317 \$134 \$133 VSSD VSSD nfet_03v3 L=0.28U W=1.56U AS=0.9516P AD=0.9516P
+ PS=4.34U PD=4.34U
M$318 \$135 \$90 VSSD VSSD nfet_03v3 L=0.28U W=1.56U AS=0.9516P AD=0.9516P
+ PS=4.34U PD=4.34U
M$319 \$136 \$2 VSSD VSSD nfet_03v3 L=0.28U W=1.56U AS=0.9516P AD=0.9516P
+ PS=4.34U PD=4.34U
M$320 \$137 \$136 VSSD VSSD nfet_03v3 L=0.28U W=1.56U AS=0.9516P AD=0.9516P
+ PS=4.34U PD=4.34U
M$321 \$138 \$96 VSSD VSSD nfet_03v3 L=0.28U W=1.56U AS=0.9516P AD=0.9516P
+ PS=4.34U PD=4.34U
M$322 \$139 \$2 VSSD VSSD nfet_03v3 L=0.28U W=1.56U AS=0.9516P AD=0.9516P
+ PS=4.34U PD=4.34U
M$323 \$140 \$139 VSSD VSSD nfet_03v3 L=0.28U W=1.56U AS=0.9516P AD=0.9516P
+ PS=4.34U PD=4.34U
M$324 \$141 \$102 VSSD VSSD nfet_03v3 L=0.28U W=1.56U AS=0.9516P AD=0.9516P
+ PS=4.34U PD=4.34U