* NGSPICE file created from SAR_Asynchronous_Logic_integration.ext - technology: gf180mcuD

.subckt SAR_Asynchronous_Logic_integration out_11 out_10 out_9 out_8 out_7 out_6 out_5
+ out_4 out_3 out_2 out_1 CK_11 CK_10 CK_9 CK_8 CK_7 CK_6 CK_5 CK_4 CK_3 CK_2 CK_1
+ D_C_11 D_C_10 D_C_9 D_C_8 D_C_7 D_C_6 D_C_5 D_C_4 D_C_3 D_C_2 D_C_1 Reset Bit_10
+ Bit_9 Bit_8 Bit_7 Bit_6 Bit_5 Bit_4 Bit_3 Bit_2 Bit_1 Bit_0 clks Set VCM VDDD VSSD
X0 a_76034_n314# a_67902_n82.t2 a_70950_n314.t4 VDDD.t495 pfet_03v3 ad=2.535p pd=9.1u as=2.535p ps=9.1u w=3.9u l=0.28u
X1 a_12918_n14314.t2 a_6822_n13946.t2 a_12732_n13054.t2 VDDD.t0 pfet_03v3 ad=2.535p pd=9.1u as=2.535p ps=9.1u w=3.9u l=0.28u
X2 a_99002_n80.t1 a_98110_n80.t2 VDDD.t76 VDDD.t75 pfet_03v3 ad=2.535p pd=9.1u as=2.535p ps=9.1u w=3.9u l=0.28u
X3 a_n18190_n3162# a_n21368_n3162.t4 a_n22658_n4422.t2 VDDD.t230 pfet_03v3 ad=2.535p pd=9.1u as=2.535p ps=9.1u w=3.9u l=0.28u
X4 VSSD.t318 SAR_Asynchronous_Logic_0/D_reset_FF_0.Q.t3 a_n27210_n4422.t1 VSSD.t317 nfet_03v3 ad=0.9516p pd=4.34u as=0.9516p ps=4.34u w=1.56u l=0.28u
X5 a_4790_n4422.t3 Set.t0 VSSD.t661 VSSD.t660 nfet_03v3 ad=0.9516p pd=4.34u as=0.9516p ps=4.34u w=1.56u l=0.28u
X6 VSSD.t369 a_105342_n4422.t5 a_106818_n4422.t1 VSSD.t368 nfet_03v3 ad=0.9516p pd=4.34u as=0.9516p ps=4.34u w=1.56u l=0.28u
X7 a_10818_n4422.t1 a_4722_n3300.t2 a_10632_n3162.t0 VSSD.t399 nfet_03v3 ad=0.9516p pd=4.34u as=0.9516p ps=4.34u w=1.56u l=0.28u
X8 VSSD.t105 a_78134_n18422.t4 SAR_Asynchronous_Logic_7/D_reset_FF_0.Q.t0 VSSD.t104 nfet_03v3 ad=0.9516p pd=4.34u as=0.9516p ps=4.34u w=1.56u l=0.28u
X9 VSSD.t459 Reset.t0 a_n23422_n314.t1 VSSD.t458 nfet_03v3 ad=0.9516p pd=4.34u as=0.9516p ps=4.34u w=1.56u l=0.28u
X10 VSSD.t107 a_133966_n314.t4 a_134950_n314.t2 VSSD.t106 nfet_03v3 ad=0.9516p pd=4.34u as=0.9516p ps=4.34u w=1.56u l=0.28u
X11 a_n21182_n4422.t2 a_n27278_n4054.t2 a_n21368_n3162.t0 VDDD.t333 pfet_03v3 ad=2.535p pd=9.1u as=2.535p ps=9.1u w=3.9u l=0.28u
X12 a_110134_n18422.t0 a_102002_n18190.t2 a_112898_n18422.t0 VSSD.t619 nfet_03v3 ad=0.9516p pd=4.34u as=0.9516p ps=4.34u w=1.56u l=0.28u
X13 VSSD.t439 a_96736_n13096.t2 a_102822_n13946.t1 VSSD.t438 nfet_03v3 ad=0.9516p pd=4.34u as=0.9516p ps=4.34u w=1.56u l=0.28u
X14 VSSD.t276 a_107442_n14314.t5 a_108918_n14314.t4 VSSD.t275 nfet_03v3 ad=0.9516p pd=4.34u as=0.9516p ps=4.34u w=1.56u l=0.28u
X15 VDDD.t7 a_6822_n13946.t3 a_6822_n13192.t0 VDDD.t6 pfet_03v3 ad=2.535p pd=9.1u as=2.535p ps=9.1u w=3.9u l=0.28u
X16 VSSD.t577 a_41342_n4422.t5 a_42818_n4422.t4 VSSD.t576 nfet_03v3 ad=0.9516p pd=4.34u as=0.9516p ps=4.34u w=1.56u l=0.28u
X17 a_8066_n18422.t2 a_6822_n18190.t2 SAR_Asynchronous_Logic_4/D_reset_FF_1.Q.t8 VDDD.t378 pfet_03v3 ad=2.535p pd=9.1u as=2.535p ps=9.1u w=3.9u l=0.28u
X18 D_C_2.t1 a_38822_n13192.t2 a_44732_n13054.t3 VDDD.t430 pfet_03v3 ad=2.535p pd=9.1u as=2.535p ps=9.1u w=3.9u l=0.28u
X19 SAR_Asynchronous_Logic_5/D_reset_FF_1.nQ SAR_Asynchronous_Logic_5/D_reset_FF_1.Q.t9 VDDD.t263 VDDD.t262 pfet_03v3 ad=2.535p pd=9.1u as=2.535p ps=9.1u w=3.9u l=0.28u
X20 VDDD.t271 a_132722_n4054.t2 a_132722_n3300.t0 VDDD.t270 pfet_03v3 ad=2.535p pd=9.1u as=2.535p ps=9.1u w=3.9u l=0.28u
X21 a_146854_1076.t0 a_131002_n80.t2 VDDD.t273 VDDD.t272 pfet_03v3 ad=2.535p pd=9.1u as=2.535p ps=9.1u w=3.9u l=1.1u
X22 a_102822_n18190.t1 a_102002_n18190.t3 VSSD.t621 VSSD.t620 nfet_03v3 ad=0.9516p pd=4.34u as=0.9516p ps=4.34u w=1.56u l=0.28u
X23 VSSD.t663 Set.t1 a_139442_n14314.t3 VSSD.t662 nfet_03v3 ad=0.9516p pd=4.34u as=0.9516p ps=4.34u w=1.56u l=0.28u
X24 VSSD.t494 a_64736_n13096.t2 a_70822_n13946.t1 VSSD.t493 nfet_03v3 ad=0.9516p pd=4.34u as=0.9516p ps=4.34u w=1.56u l=0.28u
X25 a_78134_n18422.t0 a_70002_n18190.t2 a_80898_n18422.t2 VSSD.t24 nfet_03v3 ad=0.9516p pd=4.34u as=0.9516p ps=4.34u w=1.56u l=0.28u
X26 a_110134_n18422.t3 a_102822_n18190.t2 a_105050_n18422.t0 VSSD.t690 nfet_03v3 ad=0.9516p pd=4.34u as=0.9516p ps=4.34u w=1.56u l=0.28u
X27 SAR_Asynchronous_Logic_1/D_reset_FF_1.Q.t1 a_34110_n80.t2 a_50854_1076.t0 VDDD.t190 pfet_03v3 ad=2.535p pd=9.1u as=2.535p ps=9.1u w=3.9u l=0.28u
X28 SAR_Asynchronous_Logic_3/D_reset_FF_1.Q.t2 Reset.t1 VSSD.t461 VSSD.t460 nfet_03v3 ad=0.9516p pd=4.34u as=0.9516p ps=4.34u w=1.56u l=0.28u
X29 VSSD.t665 Set.t2 a_144898_n18422.t4 VSSD.t664 nfet_03v3 ad=0.9516p pd=4.34u as=0.9516p ps=4.34u w=1.56u l=0.28u
X30 SAR_Asynchronous_Logic_4/D_reset_FF_1.Q.t0 a_6704_n13054# VSSD.t40 VSSD.t39 nfet_03v3 ad=0.9516p pd=4.34u as=0.9516p ps=4.34u w=1.56u l=0.28u
X31 a_46798_n314.t1 SAR_Asynchronous_Logic_1/D_reset_FF_1.Q.t9 VSSD.t162 VSSD.t161 nfet_03v3 ad=0.9516p pd=4.34u as=0.9516p ps=4.34u w=1.56u l=0.28u
X32 VDDD.t393 a_68722_n4054.t2 a_68722_n3300.t0 VDDD.t392 pfet_03v3 ad=2.535p pd=9.1u as=2.535p ps=9.1u w=3.9u l=0.28u
X33 VDDD.t426 Reset.t2 a_41702_n13054# VDDD.t425 pfet_03v3 ad=2.535p pd=9.1u as=2.535p ps=9.1u w=3.9u l=0.28u
X34 VDDD.t480 clks.t0 a_132722_n4054.t1 VDDD.t479 pfet_03v3 ad=2.535p pd=9.1u as=2.535p ps=9.1u w=3.9u l=0.28u
X35 a_70822_n18190.t1 a_70002_n18190.t3 VSSD.t26 VSSD.t25 nfet_03v3 ad=0.9516p pd=4.34u as=0.9516p ps=4.34u w=1.56u l=0.28u
X36 a_67002_n80.t1 a_66110_n80.t2 VSSD.t44 VSSD.t43 nfet_03v3 ad=0.9516p pd=4.34u as=0.9516p ps=4.34u w=1.56u l=0.28u
X37 a_98012_n13060.t1 a_96736_n13096.t3 SAR_Asynchronous_Logic_8/D_reset_FF_1.Q.t6 VSSD.t440 nfet_03v3 ad=0.9516p pd=4.34u as=0.9516p ps=4.34u w=1.56u l=0.28u
X38 VDDD.t55 a_36722_n4054.t2 a_36722_n3300.t0 VDDD.t54 pfet_03v3 ad=2.535p pd=9.1u as=2.535p ps=9.1u w=3.9u l=0.28u
X39 SAR_Asynchronous_Logic_5/D_reset_FF_1.Q.t8 a_68722_n4054.t3 a_74632_n3162.t1 VSSD.t419 nfet_03v3 ad=0.9516p pd=4.34u as=0.9516p ps=4.34u w=1.56u l=0.28u
X40 a_111258_n17162# Reset.t3 VDDD.t428 VDDD.t427 pfet_03v3 ad=2.535p pd=9.1u as=2.535p ps=9.1u w=3.9u l=0.28u
X41 VDDD.t482 clks.t1 a_68722_n4054.t1 VDDD.t481 pfet_03v3 ad=2.535p pd=9.1u as=2.535p ps=9.1u w=3.9u l=0.28u
X42 a_144898_n17162# SAR_Asynchronous_Logic_10/D_reset_FF_0.Q.t3 VDDD.t9 VDDD.t8 pfet_03v3 ad=2.535p pd=9.1u as=2.535p ps=9.1u w=3.9u l=0.28u
X43 Bit_4.t2 a_129966_n18540# VSSD.t472 VSSD.t471 nfet_03v3 ad=0.9516p pd=4.34u as=0.9516p ps=4.34u w=1.56u l=1.1u
X44 a_12182_n3162# Reset.t4 a_10818_n4422.t2 VDDD.t429 pfet_03v3 ad=2.535p pd=9.1u as=2.535p ps=9.1u w=3.9u l=0.28u
X45 VDDD.t484 clks.t2 a_36722_n4054.t0 VDDD.t483 pfet_03v3 ad=2.535p pd=9.1u as=2.535p ps=9.1u w=3.9u l=0.28u
X46 VDDD.t50 SAR_Asynchronous_Logic_7/D_reset_FF_1.Q.t9 SAR_Asynchronous_Logic_7/D_reset_FF_1.nQ VDDD.t49 pfet_03v3 ad=2.535p pd=9.1u as=2.535p ps=9.1u w=3.9u l=0.28u
X47 SAR_Asynchronous_Logic_0/D_reset_FF_1.Q.t0 Reset.t5 VSSD.t423 VSSD.t422 nfet_03v3 ad=0.9516p pd=4.34u as=0.9516p ps=4.34u w=1.56u l=0.28u
X48 Bit_3.t1 a_97966_n18540# VSSD.t217 VSSD.t216 nfet_03v3 ad=0.9516p pd=4.34u as=0.9516p ps=4.34u w=1.56u l=1.1u
X49 a_75442_n14314.t2 a_76732_n13054.t4 VSSD.t33 VSSD.t32 nfet_03v3 ad=0.9516p pd=4.34u as=0.9516p ps=4.34u w=1.56u l=0.28u
X50 VSSD.t189 SAR_Asynchronous_Logic_4/D_reset_FF_1.Q.t9 SAR_Asynchronous_Logic_4/D_reset_FF_1.nQ VSSD.t188 nfet_03v3 ad=0.9516p pd=4.34u as=0.9516p ps=4.34u w=1.56u l=0.28u
X51 a_108034_n314# a_99902_n82.t2 a_102950_n314.t0 VDDD.t60 pfet_03v3 ad=2.535p pd=9.1u as=2.535p ps=9.1u w=3.9u l=0.28u
X52 VSSD.t73 SAR_Asynchronous_Logic_3/D_reset_FF_0.Q.t3 a_4790_n4422.t0 VSSD.t72 nfet_03v3 ad=0.9516p pd=4.34u as=0.9516p ps=4.34u w=1.56u l=0.28u
X53 VSSD.t633 a_102822_n13946.t2 a_102822_n13192.t1 VSSD.t632 nfet_03v3 ad=0.9516p pd=4.34u as=0.9516p ps=4.34u w=1.56u l=0.28u
X54 a_43442_n14314.t0 a_38822_n13946.t2 a_38704_n13054# VDDD.t69 pfet_03v3 ad=2.535p pd=9.1u as=2.535p ps=9.1u w=3.9u l=0.28u
X55 a_n23422_n314.t0 a_n25050_n314.t5 VSSD.t31 VSSD.t30 nfet_03v3 ad=0.9516p pd=4.34u as=0.9516p ps=4.34u w=1.56u l=0.28u
X56 a_n27210_n4422.t0 Set.t3 VSSD.t168 VSSD.t167 nfet_03v3 ad=0.9516p pd=4.34u as=0.9516p ps=4.34u w=1.56u l=0.28u
X57 VSSD.t408 a_136066_n18422.t4 a_137050_n18422.t0 VSSD.t407 nfet_03v3 ad=0.9516p pd=4.34u as=0.9516p ps=4.34u w=1.56u l=0.28u
X58 a_134890_n14314.t3 Set.t4 VSSD.t170 VSSD.t169 nfet_03v3 ad=0.9516p pd=4.34u as=0.9516p ps=4.34u w=1.56u l=0.28u
X59 a_67902_n82.t1 a_67002_n80.t2 VSSD.t449 VSSD.t448 nfet_03v3 ad=0.9516p pd=4.34u as=0.9516p ps=4.34u w=1.56u l=0.28u
X60 VSSD.t209 a_70822_n13946.t2 a_70822_n13192.t1 VSSD.t208 nfet_03v3 ad=0.9516p pd=4.34u as=0.9516p ps=4.34u w=1.56u l=0.28u
X61 SAR_Asynchronous_Logic_9/D_reset_FF_1.nQ SAR_Asynchronous_Logic_9/D_reset_FF_1.Q.t9 VDDD.t456 VDDD.t455 pfet_03v3 ad=2.535p pd=9.1u as=2.535p ps=9.1u w=3.9u l=0.28u
X62 a_142134_n18422.t0 a_134822_n18190.t2 a_144898_n18422.t2 VDDD.t244 pfet_03v3 ad=2.535p pd=9.1u as=2.535p ps=9.1u w=3.9u l=0.28u
X63 a_38002_n18190.t1 clks.t3 VSSD.t528 VSSD.t527 nfet_03v3 ad=0.9516p pd=4.34u as=0.9516p ps=4.34u w=1.56u l=0.28u
X64 VDDD.t571 a_139442_n14314.t5 a_142282_n13054# VDDD.t570 pfet_03v3 ad=2.535p pd=9.1u as=2.535p ps=9.1u w=3.9u l=0.28u
X65 a_129966_n18540# a_128736_n13850.t2 SAR_Asynchronous_Logic_10/D_reset_FF_1.Q.t1 VDDD.t165 pfet_03v3 ad=2.535p pd=9.1u as=2.535p ps=9.1u w=3.9u l=0.28u
X66 a_100722_n82.t0 a_99902_n82.t3 VDDD.t62 VDDD.t61 pfet_03v3 ad=2.535p pd=9.1u as=2.535p ps=9.1u w=3.9u l=0.28u
X67 a_37966_n314.t2 a_36722_n82.t2 a_40578_n314.t4 VSSD.t638 nfet_03v3 ad=0.9516p pd=4.34u as=0.9516p ps=4.34u w=1.56u l=0.28u
X68 VSSD.t172 Set.t5 a_46798_n314.t3 VSSD.t171 nfet_03v3 ad=0.9516p pd=4.34u as=0.9516p ps=4.34u w=1.56u l=0.28u
X69 a_4790_n4422.t1 a_4722_n4054.t2 a_4604_n3162.t0 VSSD.t75 nfet_03v3 ad=0.9516p pd=4.34u as=0.9516p ps=4.34u w=1.56u l=0.28u
X70 VSSD.t61 a_147052_n4460# Bit_5.t0 VSSD.t60 nfet_03v3 ad=0.9516p pd=4.34u as=0.9516p ps=4.34u w=1.56u l=1.1u
X71 a_108034_n314# a_100722_n82.t2 a_102950_n314.t2 VSSD.t405 nfet_03v3 ad=0.9516p pd=4.34u as=0.9516p ps=4.34u w=1.56u l=0.28u
X72 VDDD.t47 a_98012_n13060.t3 Bit_3.t2 VDDD.t46 pfet_03v3 ad=2.535p pd=9.1u as=2.535p ps=9.1u w=3.9u l=1.1u
X73 a_133962_n3162# Set.t6 a_132790_n4422.t3 VDDD.t169 pfet_03v3 ad=2.535p pd=9.1u as=2.535p ps=9.1u w=3.9u l=0.28u
X74 a_142134_n18422.t2 a_134002_n18190.t2 a_137050_n18422.t2 VDDD.t225 pfet_03v3 ad=2.535p pd=9.1u as=2.535p ps=9.1u w=3.9u l=0.28u
X75 a_9050_n18422.t1 a_8066_n18422.t4 a_9050_n17162# VDDD.t460 pfet_03v3 ad=2.535p pd=9.1u as=2.535p ps=9.1u w=3.9u l=0.28u
X76 a_98110_n80.t0 CK_7.t0 VDDD.t288 VDDD.t287 pfet_03v3 ad=2.535p pd=9.1u as=2.535p ps=9.1u w=3.9u l=0.28u
X77 a_99902_n82.t0 a_99002_n80.t2 VDDD.t81 VDDD.t80 pfet_03v3 ad=2.535p pd=9.1u as=2.535p ps=9.1u w=3.9u l=0.28u
X78 a_8062_n13054# Set.t7 a_6890_n14314.t3 VDDD.t170 pfet_03v3 ad=2.535p pd=9.1u as=2.535p ps=9.1u w=3.9u l=0.28u
X79 a_14798_946# SAR_Asynchronous_Logic_3/D_reset_FF_1.Q.t9 VDDD.t210 VDDD.t209 pfet_03v3 ad=2.535p pd=9.1u as=2.535p ps=9.1u w=3.9u l=0.28u
X80 VSSD.t530 clks.t4 a_n27278_n4054.t1 VSSD.t529 nfet_03v3 ad=0.9516p pd=4.34u as=0.9516p ps=4.34u w=1.56u l=0.28u
X81 VSSD.t67 a_83052_n4460# Bit_7.t1 VSSD.t66 nfet_03v3 ad=0.9516p pd=4.34u as=0.9516p ps=4.34u w=1.56u l=1.1u
X82 VSSD.t205 SAR_Asynchronous_Logic_5/D_reset_FF_0.Q.t3 SAR_Asynchronous_Logic_5/D_reset_FF_0.nQ VSSD.t204 nfet_03v3 ad=0.9516p pd=4.34u as=0.9516p ps=4.34u w=1.56u l=0.28u
X83 a_137050_n18422.t4 Set.t8 VSSD.t174 VSSD.t173 nfet_03v3 ad=0.9516p pd=4.34u as=0.9516p ps=4.34u w=1.56u l=0.28u
X84 a_102002_n18190.t1 clks.t5 VDDD.t470 VDDD.t469 pfet_03v3 ad=2.535p pd=9.1u as=2.535p ps=9.1u w=3.9u l=0.28u
X85 a_46798_n314.t2 Set.t9 a_46798_946# VDDD.t171 pfet_03v3 ad=2.535p pd=9.1u as=2.535p ps=9.1u w=3.9u l=0.28u
X86 SAR_Asynchronous_Logic_4/D_reset_FF_0.Q.t0 Reset.t6 VSSD.t425 VSSD.t424 nfet_03v3 ad=0.9516p pd=4.34u as=0.9516p ps=4.34u w=1.56u l=0.28u
X87 a_n25050_946# Set.t10 VDDD.t173 VDDD.t172 pfet_03v3 ad=2.535p pd=9.1u as=2.535p ps=9.1u w=3.9u l=0.28u
X88 a_12034_n314# a_4722_n82.t2 a_14798_n314.t0 VDDD.t242 pfet_03v3 ad=2.535p pd=9.1u as=2.535p ps=9.1u w=3.9u l=0.28u
X89 a_8578_n314.t2 a_6950_n314.t5 VSSD.t310 VSSD.t309 nfet_03v3 ad=0.9516p pd=4.34u as=0.9516p ps=4.34u w=1.56u l=0.28u
X90 VSSD.t354 a_n27278_n4054.t3 a_n27278_n3300.t1 VSSD.t353 nfet_03v3 ad=0.9516p pd=4.34u as=0.9516p ps=4.34u w=1.56u l=0.28u
X91 a_48898_n18422.t0 SAR_Asynchronous_Logic_2/D_reset_FF_0.Q.t3 VSSD.t642 VSSD.t641 nfet_03v3 ad=0.9516p pd=4.34u as=0.9516p ps=4.34u w=1.56u l=0.28u
X92 VCM.t17 a_n29890_n80.t2 Bit_10.t2 VSSD.t303 nfet_03v3 ad=0.9516p pd=4.34u as=0.9516p ps=4.34u w=1.56u l=0.28u
X93 a_37962_n3162# Set.t11 a_36790_n4422.t4 VDDD.t174 pfet_03v3 ad=2.535p pd=9.1u as=2.535p ps=9.1u w=3.9u l=0.28u
X94 SAR_Asynchronous_Logic_9/D_reset_FF_0.Q.t1 a_100604_n3162.t4 VSSD.t592 VSSD.t591 nfet_03v3 ad=0.9516p pd=4.34u as=0.9516p ps=4.34u w=1.56u l=0.28u
X95 a_42678_n18422.t2 a_41050_n18422.t5 VSSD.t226 VSSD.t225 nfet_03v3 ad=0.9516p pd=4.34u as=0.9516p ps=4.34u w=1.56u l=0.28u
X96 VCM.t12 a_3002_n80.t2 Bit_9.t2 VDDD.t251 pfet_03v3 ad=2.535p pd=9.1u as=2.535p ps=9.1u w=3.9u l=0.28u
X97 a_136578_n314.t4 a_134950_n314.t5 VSSD.t371 VSSD.t370 nfet_03v3 ad=0.9516p pd=4.34u as=0.9516p ps=4.34u w=1.56u l=0.28u
X98 a_n25050_n314.t0 a_n26034_n314.t4 a_n25050_946# VDDD.t107 pfet_03v3 ad=2.535p pd=9.1u as=2.535p ps=9.1u w=3.9u l=0.28u
X99 SAR_Asynchronous_Logic_6/D_reset_FF_1.Q.t2 Reset.t7 VSSD.t427 VSSD.t426 nfet_03v3 ad=0.9516p pd=4.34u as=0.9516p ps=4.34u w=1.56u l=0.28u
X100 VDDD.t161 a_32736_n13850.t2 a_32736_n13096.t0 VDDD.t160 pfet_03v3 ad=2.535p pd=9.1u as=2.535p ps=9.1u w=3.9u l=0.28u
X101 a_7602_n3162# a_4604_n3162.t4 SAR_Asynchronous_Logic_3/D_reset_FF_0.Q.t1 VDDD.t520 pfet_03v3 ad=2.535p pd=9.1u as=2.535p ps=9.1u w=3.9u l=0.28u
X102 a_9050_n17162# Set.t12 VDDD.t176 VDDD.t175 pfet_03v3 ad=2.535p pd=9.1u as=2.535p ps=9.1u w=3.9u l=0.28u
X103 a_5966_n314.t1 a_4722_n82.t3 D_C_10.t0 VDDD.t243 pfet_03v3 ad=2.535p pd=9.1u as=2.535p ps=9.1u w=3.9u l=0.28u
X104 a_66110_n80.t1 CK_8.t0 VSSD.t295 VSSD.t294 nfet_03v3 ad=0.9516p pd=4.34u as=0.9516p ps=4.34u w=1.56u l=0.28u
X105 a_110282_n13054# Reset.t8 a_108918_n14314.t2 VDDD.t401 pfet_03v3 ad=2.535p pd=9.1u as=2.535p ps=9.1u w=3.9u l=0.28u
X106 a_105342_n4422.t0 a_100722_n4054.t2 a_100604_n3162.t1 VDDD.t106 pfet_03v3 ad=2.535p pd=9.1u as=2.535p ps=9.1u w=3.9u l=0.28u
X107 a_n13146_1076.t1 a_n28998_n80.t2 VDDD.t439 VDDD.t438 pfet_03v3 ad=2.535p pd=9.1u as=2.535p ps=9.1u w=3.9u l=1.1u
X108 a_41342_n4422.t0 a_36722_n4054.t3 a_36604_n3162.t1 VDDD.t379 pfet_03v3 ad=2.535p pd=9.1u as=2.535p ps=9.1u w=3.9u l=0.28u
X109 a_33966_n18540# a_32736_n13096.t2 SAR_Asynchronous_Logic_2/D_reset_FF_1.Q.t5 VSSD.t110 nfet_03v3 ad=0.9516p pd=4.34u as=0.9516p ps=4.34u w=1.56u l=0.28u
X110 VSSD.t447 a_43442_n14314.t5 a_44918_n14314.t4 VSSD.t446 nfet_03v3 ad=0.9516p pd=4.34u as=0.9516p ps=4.34u w=1.56u l=0.28u
X111 a_138818_n4422.t4 a_132722_n3300.t2 a_138632_n3162.t3 VSSD.t281 nfet_03v3 ad=0.9516p pd=4.34u as=0.9516p ps=4.34u w=1.56u l=0.28u
X112 a_76034_n314# a_68722_n82.t2 a_70950_n314.t0 VSSD.t22 nfet_03v3 ad=0.9516p pd=4.34u as=0.9516p ps=4.34u w=1.56u l=0.28u
X113 D_C_4.t0 a_102822_n13946.t3 a_108732_n13054.t1 VSSD.t190 nfet_03v3 ad=0.9516p pd=4.34u as=0.9516p ps=4.34u w=1.56u l=0.28u
X114 VDDD.t95 SAR_Asynchronous_Logic_6/D_reset_FF_0.Q.t3 a_133962_n3162# VDDD.t94 pfet_03v3 ad=2.535p pd=9.1u as=2.535p ps=9.1u w=3.9u l=0.28u
X115 VSSD.t429 Reset.t9 a_106678_n18422.t2 VSSD.t428 nfet_03v3 ad=0.9516p pd=4.34u as=0.9516p ps=4.34u w=1.56u l=0.28u
X116 VSSD.t63 SAR_Asynchronous_Logic_2/D_reset_FF_1.Q.t9 a_38890_n14314.t0 VSSD.t62 nfet_03v3 ad=0.9516p pd=4.34u as=0.9516p ps=4.34u w=1.56u l=0.28u
X117 a_137342_n4422.t4 a_138632_n3162.t4 VSSD.t241 VSSD.t240 nfet_03v3 ad=0.9516p pd=4.34u as=0.9516p ps=4.34u w=1.56u l=0.28u
X118 a_72578_946# a_70950_n314.t5 VDDD.t102 VDDD.t101 pfet_03v3 ad=2.535p pd=9.1u as=2.535p ps=9.1u w=3.9u l=0.28u
X119 a_38822_n18190.t1 a_38002_n18190.t2 VSSD.t313 VSSD.t312 nfet_03v3 ad=0.9516p pd=4.34u as=0.9516p ps=4.34u w=1.56u l=0.28u
X120 SAR_Asynchronous_Logic_1/D_reset_FF_1.Q.t7 a_35002_n80.t2 a_50854_1076.t2 VSSD.t691 nfet_03v3 ad=0.9516p pd=4.34u as=0.9516p ps=4.34u w=1.56u l=0.28u
X121 a_74818_n4422.t3 a_68722_n3300.t2 a_74632_n3162.t2 VSSD.t531 nfet_03v3 ad=0.9516p pd=4.34u as=0.9516p ps=4.34u w=1.56u l=0.28u
X122 VDDD.t93 a_n22658_n4422.t5 a_n19818_n3162# VDDD.t92 pfet_03v3 ad=2.535p pd=9.1u as=2.535p ps=9.1u w=3.9u l=0.28u
X123 a_105342_n4422.t2 a_106632_n3162.t4 VSSD.t381 VSSD.t380 nfet_03v3 ad=0.9516p pd=4.34u as=0.9516p ps=4.34u w=1.56u l=0.28u
X124 a_46134_n18422.t1 a_38822_n18190.t2 a_41050_n18422.t0 VSSD.t263 nfet_03v3 ad=0.9516p pd=4.34u as=0.9516p ps=4.34u w=1.56u l=0.28u
X125 VSSD.t265 CK_2.t0 a_32736_n13850.t1 VSSD.t264 nfet_03v3 ad=0.9516p pd=4.34u as=0.9516p ps=4.34u w=1.56u l=0.28u
X126 VSSD.t431 Reset.t10 a_8578_n314.t4 VSSD.t430 nfet_03v3 ad=0.9516p pd=4.34u as=0.9516p ps=4.34u w=1.56u l=0.28u
X127 a_44034_n314# a_35902_n82.t2 a_46798_n314.t0 VSSD.t74 nfet_03v3 ad=0.9516p pd=4.34u as=0.9516p ps=4.34u w=1.56u l=0.28u
X128 VDDD.t197 SAR_Asynchronous_Logic_5/D_reset_FF_0.Q.t4 a_69962_n3162# VDDD.t196 pfet_03v3 ad=2.535p pd=9.1u as=2.535p ps=9.1u w=3.9u l=0.28u
X129 D_C_3.t1 a_70822_n13946.t3 a_76732_n13054.t3 VSSD.t210 nfet_03v3 ad=0.9516p pd=4.34u as=0.9516p ps=4.34u w=1.56u l=0.28u
X130 VSSD.t433 Reset.t11 a_74678_n18422.t0 VSSD.t432 nfet_03v3 ad=0.9516p pd=4.34u as=0.9516p ps=4.34u w=1.56u l=0.28u
X131 VDDD.t407 a_96736_n13096.t4 a_102822_n13946.t0 VDDD.t406 pfet_03v3 ad=2.535p pd=9.1u as=2.535p ps=9.1u w=3.9u l=0.28u
X132 a_13158_946# Reset.t12 VDDD.t403 VDDD.t402 pfet_03v3 ad=2.535p pd=9.1u as=2.535p ps=9.1u w=3.9u l=0.28u
X133 a_34012_n13060.t0 a_32736_n13850.t3 SAR_Asynchronous_Logic_2/D_reset_FF_1.Q.t1 VDDD.t162 pfet_03v3 ad=2.535p pd=9.1u as=2.535p ps=9.1u w=3.9u l=0.28u
X134 VDDD.t261 SAR_Asynchronous_Logic_1/D_reset_FF_0.Q.t3 a_37962_n3162# VDDD.t260 pfet_03v3 ad=2.535p pd=9.1u as=2.535p ps=9.1u w=3.9u l=0.28u
X135 a_41342_n4422.t3 a_42632_n3162.t4 VSSD.t679 VSSD.t678 nfet_03v3 ad=0.9516p pd=4.34u as=0.9516p ps=4.34u w=1.56u l=0.28u
X136 a_106678_n17162# a_105050_n18422.t5 VDDD.t452 VDDD.t451 pfet_03v3 ad=2.535p pd=9.1u as=2.535p ps=9.1u w=3.9u l=0.28u
X137 VSSD.t103 a_n26034_n314.t5 a_n25050_n314.t1 VSSD.t102 nfet_03v3 ad=0.9516p pd=4.34u as=0.9516p ps=4.34u w=1.56u l=0.28u
X138 VSSD.t435 Reset.t13 a_136578_n314.t1 VSSD.t434 nfet_03v3 ad=0.9516p pd=4.34u as=0.9516p ps=4.34u w=1.56u l=0.28u
X139 VSSD.t437 Reset.t14 SAR_Asynchronous_Logic_9/D_reset_FF_0.Q.t0 VSSD.t436 nfet_03v3 ad=0.9516p pd=4.34u as=0.9516p ps=4.34u w=1.56u l=0.28u
X140 a_47258_n17162# Reset.t15 VDDD.t405 VDDD.t404 pfet_03v3 ad=2.535p pd=9.1u as=2.535p ps=9.1u w=3.9u l=0.28u
X141 a_102890_n14314.t2 a_102822_n13192.t2 a_102704_n13054# VDDD.t38 pfet_03v3 ad=2.535p pd=9.1u as=2.535p ps=9.1u w=3.9u l=0.28u
X142 a_132790_n4422.t2 a_132722_n3300.t3 a_132604_n3162.t2 VDDD.t194 pfet_03v3 ad=2.535p pd=9.1u as=2.535p ps=9.1u w=3.9u l=0.28u
X143 a_8066_n18422.t0 a_6002_n18190.t2 a_10678_n18422.t4 VDDD.t229 pfet_03v3 ad=2.535p pd=9.1u as=2.535p ps=9.1u w=3.9u l=0.28u
X144 a_n12948_n4460# a_n29890_n80.t3 VSSD.t579 VSSD.t578 nfet_03v3 ad=0.9516p pd=4.34u as=0.9516p ps=4.34u w=1.56u l=1.1u
X145 a_102822_n18190.t0 a_102002_n18190.t4 VDDD.t546 VDDD.t545 pfet_03v3 ad=2.535p pd=9.1u as=2.535p ps=9.1u w=3.9u l=0.28u
X146 VDDD.t208 a_64736_n13096.t3 a_70822_n13946.t0 VDDD.t207 pfet_03v3 ad=2.535p pd=9.1u as=2.535p ps=9.1u w=3.9u l=0.28u
X147 a_69966_n314.t2 a_67902_n82.t3 a_72578_n314.t4 VDDD.t494 pfet_03v3 ad=2.535p pd=9.1u as=2.535p ps=9.1u w=3.9u l=0.28u
X148 VDDD.t147 Reset.t16 a_7602_n3162# VDDD.t146 pfet_03v3 ad=2.535p pd=9.1u as=2.535p ps=9.1u w=3.9u l=0.28u
X149 VSSD.t137 Reset.t17 SAR_Asynchronous_Logic_1/D_reset_FF_0.Q.t2 VSSD.t136 nfet_03v3 ad=0.9516p pd=4.34u as=0.9516p ps=4.34u w=1.56u l=0.28u
X150 a_74678_n17162# a_73050_n18422.t5 VDDD.t433 VDDD.t432 pfet_03v3 ad=2.535p pd=9.1u as=2.535p ps=9.1u w=3.9u l=0.28u
X151 a_70890_n14314.t1 a_70822_n13192.t2 a_70704_n13054# VDDD.t125 pfet_03v3 ad=2.535p pd=9.1u as=2.535p ps=9.1u w=3.9u l=0.28u
X152 SAR_Asynchronous_Logic_3/D_reset_FF_1.Q.t1 a_12034_n314# a_13158_946# VDDD.t24 pfet_03v3 ad=2.535p pd=9.1u as=2.535p ps=9.1u w=3.9u l=0.28u
X153 a_70822_n18190.t0 a_70002_n18190.t4 VDDD.t33 VDDD.t32 pfet_03v3 ad=2.535p pd=9.1u as=2.535p ps=9.1u w=3.9u l=0.28u
X154 a_40066_n18422.t0 a_38822_n18190.t3 SAR_Asynchronous_Logic_2/D_reset_FF_1.Q.t8 VDDD.t581 pfet_03v3 ad=2.535p pd=9.1u as=2.535p ps=9.1u w=3.9u l=0.28u
X155 a_36790_n4422.t1 a_36722_n3300.t2 a_36604_n3162.t2 VDDD.t399 pfet_03v3 ad=2.535p pd=9.1u as=2.535p ps=9.1u w=3.9u l=0.28u
X156 SAR_Asynchronous_Logic_4/D_reset_FF_0.Q.t1 a_14134_n18422.t4 a_15258_n17162# VDDD.t344 pfet_03v3 ad=2.535p pd=9.1u as=2.535p ps=9.1u w=3.9u l=0.28u
X157 a_12918_n14314.t0 Reset.t18 VSSD.t139 VSSD.t138 nfet_03v3 ad=0.9516p pd=4.34u as=0.9516p ps=4.34u w=1.56u l=0.28u
X158 a_76182_n3162# Reset.t19 a_74818_n4422.t2 VDDD.t148 pfet_03v3 ad=2.535p pd=9.1u as=2.535p ps=9.1u w=3.9u l=0.28u
X159 SAR_Asynchronous_Logic_2/D_reset_FF_0.nQ SAR_Asynchronous_Logic_2/D_reset_FF_0.Q.t4 VSSD.t287 VSSD.t286 nfet_03v3 ad=0.9516p pd=4.34u as=0.9516p ps=4.34u w=1.56u l=0.28u
X160 VSSD.t17 a_108034_n314# SAR_Asynchronous_Logic_9/D_reset_FF_1.Q.t0 VSSD.t16 nfet_03v3 ad=0.9516p pd=4.34u as=0.9516p ps=4.34u w=1.56u l=0.28u
X161 VDDD.t387 SAR_Asynchronous_Logic_8/D_reset_FF_1.Q.t9 a_104062_n13054# VDDD.t386 pfet_03v3 ad=2.535p pd=9.1u as=2.535p ps=9.1u w=3.9u l=0.28u
X162 SAR_Asynchronous_Logic_2/D_reset_FF_1.Q.t3 a_38704_n13054# VSSD.t7 VSSD.t6 nfet_03v3 ad=0.9516p pd=4.34u as=0.9516p ps=4.34u w=1.56u l=0.28u
X163 VSSD.t176 Set.t13 a_137342_n4422.t2 VSSD.t175 nfet_03v3 ad=0.9516p pd=4.34u as=0.9516p ps=4.34u w=1.56u l=0.28u
X164 VDDD.t184 a_75442_n14314.t5 a_78282_n13054# VDDD.t183 pfet_03v3 ad=2.535p pd=9.1u as=2.535p ps=9.1u w=3.9u l=0.28u
X165 a_104578_946# a_102950_n314.t5 VDDD.t37 VDDD.t36 pfet_03v3 ad=2.535p pd=9.1u as=2.535p ps=9.1u w=3.9u l=0.28u
X166 VSSD.t245 SAR_Asynchronous_Logic_3/D_reset_FF_0.Q.t4 SAR_Asynchronous_Logic_3/D_reset_FF_0.nQ VSSD.t244 nfet_03v3 ad=0.9516p pd=4.34u as=0.9516p ps=4.34u w=1.56u l=0.28u
X167 a_65966_n18540# a_64736_n13850.t2 SAR_Asynchronous_Logic_7/D_reset_FF_1.Q.t5 VDDD.t434 pfet_03v3 ad=2.535p pd=9.1u as=2.535p ps=9.1u w=3.9u l=0.28u
X168 VCM.t7 a_131002_n80.t3 Bit_5.t1 VDDD.t274 pfet_03v3 ad=2.535p pd=9.1u as=2.535p ps=9.1u w=3.9u l=0.28u
X169 VSSD.t178 Set.t14 a_n22658_n4422.t0 VSSD.t177 nfet_03v3 ad=0.9516p pd=4.34u as=0.9516p ps=4.34u w=1.56u l=0.28u
X170 VDDD.t180 SAR_Asynchronous_Logic_4/D_reset_FF_1.Q.t10 SAR_Asynchronous_Logic_4/D_reset_FF_1.nQ VDDD.t179 pfet_03v3 ad=2.535p pd=9.1u as=2.535p ps=9.1u w=3.9u l=0.28u
X171 D_C_5.t0 a_134822_n13192.t2 a_140732_n13054.t1 VDDD.t559 pfet_03v3 ad=2.535p pd=9.1u as=2.535p ps=9.1u w=3.9u l=0.28u
X172 VDDD.t187 a_102822_n13946.t4 a_102822_n13192.t0 VDDD.t186 pfet_03v3 ad=2.535p pd=9.1u as=2.535p ps=9.1u w=3.9u l=0.28u
X173 VDDD.t52 SAR_Asynchronous_Logic_7/D_reset_FF_1.Q.t10 a_72062_n13054# VDDD.t51 pfet_03v3 ad=2.535p pd=9.1u as=2.535p ps=9.1u w=3.9u l=0.28u
X174 SAR_Asynchronous_Logic_3/D_reset_FF_1.nQ SAR_Asynchronous_Logic_3/D_reset_FF_1.Q.t10 VDDD.t212 VDDD.t211 pfet_03v3 ad=2.535p pd=9.1u as=2.535p ps=9.1u w=3.9u l=0.28u
X175 a_138678_n18422.t1 Reset.t20 a_138678_n17162# VDDD.t149 pfet_03v3 ad=2.535p pd=9.1u as=2.535p ps=9.1u w=3.9u l=0.28u
X176 a_136578_n314.t0 Reset.t21 a_136578_946# VDDD.t150 pfet_03v3 ad=2.535p pd=9.1u as=2.535p ps=9.1u w=3.9u l=0.28u
X177 SAR_Asynchronous_Logic_9/D_reset_FF_1.Q.t7 a_99002_n80.t3 a_115052_n4460# VSSD.t414 nfet_03v3 ad=0.9516p pd=4.34u as=0.9516p ps=4.34u w=1.56u l=0.28u
X178 a_78134_n18422.t1 a_70002_n18190.t5 a_73050_n18422.t0 VDDD.t34 pfet_03v3 ad=2.535p pd=9.1u as=2.535p ps=9.1u w=3.9u l=0.28u
X179 a_142798_946# SAR_Asynchronous_Logic_6/D_reset_FF_1.Q.t9 VDDD.t124 VDDD.t123 pfet_03v3 ad=2.535p pd=9.1u as=2.535p ps=9.1u w=3.9u l=0.28u
X180 a_102950_n314.t4 Set.t15 VSSD.t180 VSSD.t179 nfet_03v3 ad=0.9516p pd=4.34u as=0.9516p ps=4.34u w=1.56u l=0.28u
X181 SAR_Asynchronous_Logic_0/D_reset_FF_1.Q.t2 a_n28998_n80.t3 a_n12948_n4460# VSSD.t482 nfet_03v3 ad=0.9516p pd=4.34u as=0.9516p ps=4.34u w=1.56u l=0.28u
X182 VSSD.t182 Set.t16 a_41342_n4422.t2 VSSD.t181 nfet_03v3 ad=0.9516p pd=4.34u as=0.9516p ps=4.34u w=1.56u l=0.28u
X183 VDDD.t203 a_70822_n13946.t4 a_70822_n13192.t0 VDDD.t202 pfet_03v3 ad=2.535p pd=9.1u as=2.535p ps=9.1u w=3.9u l=0.28u
X184 a_n25050_n314.t4 Set.t17 VSSD.t123 VSSD.t122 nfet_03v3 ad=0.9516p pd=4.34u as=0.9516p ps=4.34u w=1.56u l=0.28u
X185 a_5966_n314.t3 a_3902_n82.t2 D_C_10.t1 VSSD.t537 nfet_03v3 ad=0.9516p pd=4.34u as=0.9516p ps=4.34u w=1.56u l=0.28u
X186 SAR_Asynchronous_Logic_1/D_reset_FF_1.Q.t8 a_35002_n80.t3 a_51052_n4460# VSSD.t692 nfet_03v3 ad=0.9516p pd=4.34u as=0.9516p ps=4.34u w=1.56u l=0.28u
X187 a_38002_n18190.t0 clks.t6 VDDD.t472 VDDD.t471 pfet_03v3 ad=2.535p pd=9.1u as=2.535p ps=9.1u w=3.9u l=0.28u
X188 a_n29890_n80.t0 CK_11.t0 VDDD.t215 VDDD.t214 pfet_03v3 ad=2.535p pd=9.1u as=2.535p ps=9.1u w=3.9u l=0.28u
X189 VDDD.t490 a_9342_n4422.t5 a_12182_n3162# VDDD.t489 pfet_03v3 ad=2.535p pd=9.1u as=2.535p ps=9.1u w=3.9u l=0.28u
X190 VSSD.t12 a_96736_n13850.t2 a_97966_n18540# VSSD.t11 nfet_03v3 ad=0.9516p pd=4.34u as=0.9516p ps=4.34u w=1.56u l=1.1u
X191 Bit_4.t0 a_128736_n13096.t2 VCM.t1 VDDD.t45 pfet_03v3 ad=2.535p pd=9.1u as=2.535p ps=9.1u w=3.9u l=0.28u
X192 a_140034_n314# a_132722_n82.t2 a_142798_n314.t1 VDDD.t437 pfet_03v3 ad=2.535p pd=9.1u as=2.535p ps=9.1u w=3.9u l=0.28u
X193 Bit_2.t2 a_64736_n13850.t3 VCM.t20 VSSD.t477 nfet_03v3 ad=0.9516p pd=4.34u as=0.9516p ps=4.34u w=1.56u l=0.28u
X194 a_101966_n314.t0 a_99902_n82.t4 a_104578_n314.t0 VDDD.t63 pfet_03v3 ad=2.535p pd=9.1u as=2.535p ps=9.1u w=3.9u l=0.28u
X195 a_n22658_n4422.t3 a_n27278_n4054.t4 a_n27396_n3162.t0 VDDD.t334 pfet_03v3 ad=2.535p pd=9.1u as=2.535p ps=9.1u w=3.9u l=0.28u
X196 SAR_Asynchronous_Logic_6/D_reset_FF_1.Q.t6 a_132722_n3300.t4 a_138632_n3162.t2 VDDD.t195 pfet_03v3 ad=2.535p pd=9.1u as=2.535p ps=9.1u w=3.9u l=0.28u
X197 a_133966_n314.t1 a_131902_n82.t2 D_C_6.t1 VSSD.t338 nfet_03v3 ad=0.9516p pd=4.34u as=0.9516p ps=4.34u w=1.56u l=0.28u
X198 a_15910_n13054# a_12732_n13054.t4 a_11442_n14314.t0 VDDD.t18 pfet_03v3 ad=2.535p pd=9.1u as=2.535p ps=9.1u w=3.9u l=0.28u
X199 VCM.t15 a_2110_n80.t2 Bit_9.t1 VSSD.t331 nfet_03v3 ad=0.9516p pd=4.34u as=0.9516p ps=4.34u w=1.56u l=0.28u
X200 VDDD.t474 clks.t7 a_n27278_n4054.t0 VDDD.t473 pfet_03v3 ad=2.535p pd=9.1u as=2.535p ps=9.1u w=3.9u l=0.28u
X201 Bit_3.t3 a_96736_n13096.t5 VCM.t13 VDDD.t408 pfet_03v3 ad=2.535p pd=9.1u as=2.535p ps=9.1u w=3.9u l=0.28u
X202 a_n26034_n314.t2 a_n28098_n82.t2 a_n23422_n314.t4 VDDD.t315 pfet_03v3 ad=2.535p pd=9.1u as=2.535p ps=9.1u w=3.9u l=0.28u
X203 VDDD.t199 SAR_Asynchronous_Logic_5/D_reset_FF_0.Q.t5 SAR_Asynchronous_Logic_5/D_reset_FF_0.nQ VDDD.t198 pfet_03v3 ad=2.535p pd=9.1u as=2.535p ps=9.1u w=3.9u l=0.28u
X204 a_69966_n314.t0 a_68722_n82.t3 D_C_8.t0 VDDD.t30 pfet_03v3 ad=2.535p pd=9.1u as=2.535p ps=9.1u w=3.9u l=0.28u
X205 SAR_Asynchronous_Logic_1/D_reset_FF_1.Q.t4 a_36722_n3300.t3 a_42632_n3162.t3 VDDD.t400 pfet_03v3 ad=2.535p pd=9.1u as=2.535p ps=9.1u w=3.9u l=0.28u
X206 VSSD.t95 a_76034_n314# SAR_Asynchronous_Logic_5/D_reset_FF_1.Q.t2 VSSD.t94 nfet_03v3 ad=0.9516p pd=4.34u as=0.9516p ps=4.34u w=1.56u l=0.28u
X207 a_105702_n13054# a_102704_n13054# SAR_Asynchronous_Logic_8/D_reset_FF_1.Q.t4 VDDD.t91 pfet_03v3 ad=2.535p pd=9.1u as=2.535p ps=9.1u w=3.9u l=0.28u
X208 VDDD.t410 a_96736_n13096.t6 a_98012_n13060.t2 VDDD.t409 pfet_03v3 ad=2.535p pd=9.1u as=2.535p ps=9.1u w=3.9u l=1.1u
X209 a_46282_n13054# Reset.t22 a_44918_n14314.t2 VDDD.t151 pfet_03v3 ad=2.535p pd=9.1u as=2.535p ps=9.1u w=3.9u l=0.28u
X210 VDDD.t336 a_n27278_n4054.t5 a_n27278_n3300.t0 VDDD.t335 pfet_03v3 ad=2.535p pd=9.1u as=2.535p ps=9.1u w=3.9u l=0.28u
X211 a_41050_n18422.t1 a_40066_n18422.t4 a_41050_n17162# VDDD.t374 pfet_03v3 ad=2.535p pd=9.1u as=2.535p ps=9.1u w=3.9u l=0.28u
X212 SAR_Asynchronous_Logic_5/D_reset_FF_1.nQ SAR_Asynchronous_Logic_5/D_reset_FF_1.Q.t10 VSSD.t274 VSSD.t273 nfet_03v3 ad=0.9516p pd=4.34u as=0.9516p ps=4.34u w=1.56u l=0.28u
X213 a_12918_n14314.t1 a_6822_n13192.t2 a_12732_n13054.t0 VSSD.t183 nfet_03v3 ad=0.9516p pd=4.34u as=0.9516p ps=4.34u w=1.56u l=0.28u
X214 a_40062_n13054# Set.t18 a_38890_n14314.t3 VDDD.t131 pfet_03v3 ad=2.535p pd=9.1u as=2.535p ps=9.1u w=3.9u l=0.28u
X215 Bit_9.t0 a_18854_1076.t3 VDDD.t159 VDDD.t158 pfet_03v3 ad=2.535p pd=9.1u as=2.535p ps=9.1u w=3.9u l=1.1u
X216 a_n22658_n4422.t1 a_n21368_n3162.t5 VSSD.t320 VSSD.t319 nfet_03v3 ad=0.9516p pd=4.34u as=0.9516p ps=4.34u w=1.56u l=0.28u
X217 a_73702_n13054# a_70704_n13054# SAR_Asynchronous_Logic_7/D_reset_FF_1.Q.t6 VDDD.t457 pfet_03v3 ad=2.535p pd=9.1u as=2.535p ps=9.1u w=3.9u l=0.28u
X218 a_115052_n4460# a_98110_n80.t3 VSSD.t92 VSSD.t91 nfet_03v3 ad=0.9516p pd=4.34u as=0.9516p ps=4.34u w=1.56u l=1.1u
X219 a_n21182_n4422.t4 a_n27278_n3300.t2 a_n21368_n3162.t2 VSSD.t574 nfet_03v3 ad=0.9516p pd=4.34u as=0.9516p ps=4.34u w=1.56u l=0.28u
X220 a_n23422_946# a_n25050_n314.t6 VDDD.t43 VDDD.t42 pfet_03v3 ad=2.535p pd=9.1u as=2.535p ps=9.1u w=3.9u l=0.28u
X221 a_8066_n18422.t1 a_6002_n18190.t3 SAR_Asynchronous_Logic_4/D_reset_FF_1.Q.t5 VSSD.t235 nfet_03v3 ad=0.9516p pd=4.34u as=0.9516p ps=4.34u w=1.56u l=0.28u
X222 a_134002_n18190.t1 clks.t8 VSSD.t520 VSSD.t519 nfet_03v3 ad=0.9516p pd=4.34u as=0.9516p ps=4.34u w=1.56u l=0.28u
X223 D_C_2.t0 a_38822_n13946.t3 a_44732_n13054.t0 VSSD.t56 nfet_03v3 ad=0.9516p pd=4.34u as=0.9516p ps=4.34u w=1.56u l=0.28u
X224 a_70950_n314.t2 Set.t19 VSSD.t125 VSSD.t124 nfet_03v3 ad=0.9516p pd=4.34u as=0.9516p ps=4.34u w=1.56u l=0.28u
X225 a_51052_n4460# a_34110_n80.t3 VSSD.t193 VSSD.t192 nfet_03v3 ad=0.9516p pd=4.34u as=0.9516p ps=4.34u w=1.56u l=1.1u
X226 a_n28098_n82.t0 a_n28998_n80.t4 VDDD.t441 VDDD.t440 pfet_03v3 ad=2.535p pd=9.1u as=2.535p ps=9.1u w=3.9u l=0.28u
X227 VSSD.t38 a_101966_n314.t4 a_102950_n314.t1 VSSD.t37 nfet_03v3 ad=0.9516p pd=4.34u as=0.9516p ps=4.34u w=1.56u l=0.28u
X228 VSSD.t14 a_96736_n13850.t3 a_96736_n13096.t0 VSSD.t13 nfet_03v3 ad=0.9516p pd=4.34u as=0.9516p ps=4.34u w=1.56u l=0.28u