* NGSPICE file created from SAR_Asynchronous_top_neg_logic.ext - technology: gf180mcuD

.subckt SAR_Asynchronous_top_neg_logic CK_1 Bit_2_n Bit_1_n Bit_5 Bit_4 Bit_3 Bit_2
+ Bit_1 VDDD Reset VCM Set clks D Valid vocp out_10 out_11 out_1 out_9 out_2 out_8
+ out_3 out_7 out_4 out_6 out_5 VSSD Bit_9_n Bit_9 Bit_8_n Bit_7_n Bit_7 Bit_8 Bit_6
+ Bit_10 Bit_10_n
X0 a_39352_10796.t1 a_37288_11028.t2 a_41964_10796.t1 VDDD.t350 pfet_03v3 ad=2.535p pd=9.1u as=2.535p ps=9.1u w=3.9u l=0.28u
X1 SAR_Asynchronous_top_0/SAR_Asynchronous_Logic_integration_0/SAR_Asynchronous_Logic_9/D_reset_FF_0.nQ SAR_Asynchronous_top_0/SAR_Asynchronous_Logic_integration_0/SAR_Asynchronous_Logic_9/D_reset_FF_0.Q.t3 VDDD.t3 VDDD.t2 pfet_03v3 ad=2.535p pd=9.1u as=2.535p ps=9.1u w=3.9u l=0.28u
X2 SAR_Asynchronous_top_0/SAR_Asynchronous_Logic_integration_0/SAR_Asynchronous_Logic_10/D_reset_FF_0.Q.t1 a_47520_n7312.t4 a_48644_n6052# VDDD.t20 pfet_03v3 ad=2.535p pd=9.1u as=2.535p ps=9.1u w=3.9u l=0.28u
X3 a_n60504_11030.t0 a_n60570_11594.t5 VDDD.t19 VDDD.t18 pfet_03v3 ad=2.535p pd=9.1u as=2.535p ps=9.1u w=3.9u l=0.28u
X4 Bit_1.t1 a_n29878_n2740.t2 VCM.t1 VSSD.t28 nfet_03v3 ad=0.9516p pd=4.34u as=0.9516p ps=4.34u w=1.56u l=0.28u
X5 Bit_8_n.t2 a_n32888_n40380.t2 a_n29338_n40380# VSSD.t718 nfet_03v3 ad=0.9516p pd=4.34u as=0.9516p ps=4.34u w=1.56u l=0.28u
X6 VSSD.t1068 a_n18580_10796# SAR_Asynchronous_top_0/SAR_Asynchronous_Logic_integration_0/SAR_Asynchronous_Logic_1/D_reset_FF_1.Q.t8 VSSD.t1067 nfet_03v3 ad=0.9516p pd=4.34u as=0.9516p ps=4.34u w=1.56u l=0.28u
X7 a_11088_n1944# a_8090_n1944# SAR_Asynchronous_top_0/SAR_Asynchronous_Logic_integration_0/SAR_Asynchronous_Logic_9/D_reset_FF_1.Q.t0 VDDD.t145 pfet_03v3 ad=2.535p pd=9.1u as=2.535p ps=9.1u w=3.9u l=0.28u
X8 a_n28504_11030.t0 a_n44820_n28246.t5 VDDD.t596 VDDD.t595 pfet_03v3 ad=2.535p pd=9.1u as=2.535p ps=9.1u w=3.9u l=0.28u
X9 a_40336_12056# Set.t0 VDDD.t714 VDDD.t713 pfet_03v3 ad=2.535p pd=9.1u as=2.535p ps=9.1u w=3.9u l=0.28u
X10 a_14304_n3204.t3 a_8208_n2082.t2 a_14118_n1944.t3 VSSD.t651 nfet_03v3 ad=0.9516p pd=4.34u as=0.9516p ps=4.34u w=1.56u l=0.28u
X11 VSSD.t839 a_76828_n3204.t5 a_78304_n3204.t4 VSSD.t838 nfet_03v3 ad=0.9516p pd=4.34u as=0.9516p ps=4.34u w=1.56u l=0.28u
X12 SAR_Asynchronous_top_0/SAR_Asynchronous_Logic_integration_0/SAR_Asynchronous_Logic_3/D_reset_FF_0.nQ SAR_Asynchronous_top_0/SAR_Asynchronous_Logic_integration_0/SAR_Asynchronous_Logic_3/D_reset_FF_0.Q.t3 VSSD.t930 VSSD.t929 nfet_03v3 ad=0.9516p pd=4.34u as=0.9516p ps=4.34u w=1.56u l=0.28u
X13 a_20240_12186.t1 a_4388_11030.t2 VDDD.t558 VDDD.t557 pfet_03v3 ad=2.535p pd=9.1u as=2.535p ps=9.1u w=3.9u l=1.1u
X14 VSSD.t898 a_66122_n1986.t2 a_72208_n2836.t1 VSSD.t897 nfet_03v3 ad=0.9516p pd=4.34u as=0.9516p ps=4.34u w=1.56u l=0.28u
X15 SAR_Asynchronous_top_0/SAR_Asynchronous_Logic_integration_0/SAR_Asynchronous_Logic_0/D_reset_FF_1.nQ SAR_Asynchronous_top_0/SAR_Asynchronous_Logic_integration_0/SAR_Asynchronous_Logic_0/D_reset_FF_1.Q.t9 VSSD.t760 VSSD.t759 nfet_03v3 ad=0.9516p pd=4.34u as=0.9516p ps=4.34u w=1.56u l=0.28u
X16 VSSD.t710 a_44828_n3204.t5 a_46304_n3204.t1 VSSD.t709 nfet_03v3 ad=0.9516p pd=4.34u as=0.9516p ps=4.34u w=1.56u l=0.28u
X17 a_12112_n40380.t0 a_11362_n40380.t2 VDDD.t615 VDDD.t614 pfet_03v3 ad=2.535p pd=9.1u as=2.535p ps=9.1u w=3.9u l=0.28u
X18 a_n15944_n28246# a_n23256_n28014.t2 a_n21028_n28246.t1 VSSD.t861 nfet_03v3 ad=0.9516p pd=4.34u as=0.9516p ps=4.34u w=1.56u l=0.28u
X19 a_n83796_6688.t2 Reset.t0 VSSD.t680 VSSD.t679 nfet_03v3 ad=0.9516p pd=4.34u as=0.9516p ps=4.34u w=1.56u l=0.28u
X20 a_79624_n28014# CK_1.t3 VSSD.t650 VSSD.t649 nfet_03v3 ad=0.9516p pd=4.34u as=0.9516p ps=4.34u w=1.56u l=0.28u
X21 a_n6028_n28246.t1 a_n7012_n28246.t4 a_n6028_n26986# VDDD.t412 pfet_03v3 ad=2.535p pd=9.1u as=2.535p ps=9.1u w=3.9u l=0.28u
X22 VDDD.t716 Set.t1 a_81296_n1944# VDDD.t715 pfet_03v3 ad=2.535p pd=9.1u as=2.535p ps=9.1u w=3.9u l=0.28u
X23 VSSD.t827 Set.t2 a_31820_n28246.t4 VSSD.t826 nfet_03v3 ad=0.9516p pd=4.34u as=0.9516p ps=4.34u w=1.56u l=0.28u
X24 a_180_n26986# clks.t0 VDDD.t567 VDDD.t566 pfet_03v3 ad=2.535p pd=9.1u as=2.535p ps=9.1u w=3.9u l=0.28u
X25 a_n79816_10796.t1 Set.t3 a_n79816_12056# VDDD.t717 pfet_03v3 ad=2.535p pd=9.1u as=2.535p ps=9.1u w=3.9u l=0.28u
X26 a_n55664_12056# Set.t4 VDDD.t719 VDDD.t718 pfet_03v3 ad=2.535p pd=9.1u as=2.535p ps=9.1u w=3.9u l=0.28u
X27 SAR_Asynchronous_top_0/SAR_Asynchronous_Logic_integration_0/SAR_Asynchronous_Logic_6/D_reset_FF_1.Q.t7 a_67496_11030.t2 a_84438_6650# VDDD.t753 pfet_03v3 ad=2.535p pd=9.1u as=2.535p ps=9.1u w=3.9u l=0.28u
X28 a_n43562_6650# a_n60504_11030.t2 VSSD.t964 VSSD.t963 nfet_03v3 ad=0.9516p pd=4.34u as=0.9516p ps=4.34u w=1.56u l=1.1u
X29 VCM.t11 a_3496_11030.t2 Bit_7.t0 VSSD.t501 nfet_03v3 ad=0.9516p pd=4.34u as=0.9516p ps=4.34u w=1.56u l=0.28u
X30 VDDD.t795 a_35398_n1950.t3 Bit_3.t0 VDDD.t794 pfet_03v3 ad=2.535p pd=9.1u as=2.535p ps=9.1u w=3.9u l=1.1u
X31 VDDD.t721 Set.t5 a_49296_n1944# VDDD.t720 pfet_03v3 ad=2.535p pd=9.1u as=2.535p ps=9.1u w=3.9u l=0.28u
X32 VDDD.t582 Reset.t1 a_40988_7948# VDDD.t581 pfet_03v3 ad=2.535p pd=9.1u as=2.535p ps=9.1u w=3.9u l=0.28u
X33 a_n53272_6688.t1 a_n57892_7810.t2 a_n58010_7948.t1 VSSD.t467 nfet_03v3 ad=0.9516p pd=4.34u as=0.9516p ps=4.34u w=1.56u l=0.28u
X34 a_n56648_10796.t2 a_n58712_11028.t2 a_n54036_10796.t4 VDDD.t464 pfet_03v3 ad=2.535p pd=9.1u as=2.535p ps=9.1u w=3.9u l=0.28u
X35 a_38176_6688.t0 a_38108_7810.t2 a_37990_7948.t1 VDDD.t511 pfet_03v3 ad=2.535p pd=9.1u as=2.535p ps=9.1u w=3.9u l=0.28u
X36 a_21744_n28014.t1 a_20924_n28014.t2 VSSD.t459 VSSD.t458 nfet_03v3 ad=0.9516p pd=4.34u as=0.9516p ps=4.34u w=1.56u l=0.28u
X37 a_55600_n28246.t0 clks.t1 a_55600_n26986# VDDD.t568 pfet_03v3 ad=2.535p pd=9.1u as=2.535p ps=9.1u w=3.9u l=0.28u
X38 vocp.t0 a_72208_n2082.t2 a_78118_n1944.t0 VDDD.t410 pfet_03v3 ad=2.535p pd=9.1u as=2.535p ps=9.1u w=3.9u l=0.28u
X39 VSSD.t521 a_n67012_n28246.t4 a_n66028_n28246.t4 VSSD.t520 nfet_03v3 ad=0.9516p pd=4.34u as=0.9516p ps=4.34u w=1.56u l=0.28u
X40 a_n75944_n28246# a_n84076_n28014.t2 a_n73180_n28246.t4 VSSD.t621 nfet_03v3 ad=0.9516p pd=4.34u as=0.9516p ps=4.34u w=1.56u l=0.28u
X41 a_n45716_n7312.t1 Set.t6 a_n45716_n6052# VDDD.t722 pfet_03v3 ad=2.535p pd=9.1u as=2.535p ps=9.1u w=3.9u l=0.28u
X42 a_n64400_n28246.t0 clks.t2 a_n64400_n26986# VDDD.t569 pfet_03v3 ad=2.535p pd=9.1u as=2.535p ps=9.1u w=3.9u l=0.28u
X43 a_n56648_10796.t0 a_n57892_11028.t2 vocp.t12 VDDD.t536 pfet_03v3 ad=2.535p pd=9.1u as=2.535p ps=9.1u w=3.9u l=0.28u
X44 a_42728_6688.t2 a_38108_7810.t3 a_37990_7948.t0 VSSD.t603 nfet_03v3 ad=0.9516p pd=4.34u as=0.9516p ps=4.34u w=1.56u l=0.28u
X45 a_n23256_n28014.t0 a_n24076_n28014.t2 VDDD.t637 VDDD.t636 pfet_03v3 ad=2.535p pd=9.1u as=2.535p ps=9.1u w=3.9u l=0.28u
X46 VSSD.t682 Reset.t2 a_9964_10796.t2 VSSD.t681 nfet_03v3 ad=0.9516p pd=4.34u as=0.9516p ps=4.34u w=1.56u l=0.28u
X47 SAR_Asynchronous_top_0/SAR_Asynchronous_Logic_integration_0/SAR_Asynchronous_Logic_1/D_reset_FF_1.Q.t3 a_n28504_11030.t2 a_n11562_6650# VDDD.t630 pfet_03v3 ad=2.535p pd=9.1u as=2.535p ps=9.1u w=3.9u l=0.28u
X48 a_n21564_n6052# Set.t7 VDDD.t724 VDDD.t723 pfet_03v3 ad=2.535p pd=9.1u as=2.535p ps=9.1u w=3.9u l=0.28u
X49 a_n14820_n28246.t2 a_n15944_n28246# a_n14820_n26986# VDDD.t359 pfet_03v3 ad=2.535p pd=9.1u as=2.535p ps=9.1u w=3.9u l=0.28u
X50 a_n23664_10796.t0 a_n24648_10796.t4 a_n23664_12056# VDDD.t647 pfet_03v3 ad=2.535p pd=9.1u as=2.535p ps=9.1u w=3.9u l=0.28u
X51 a_16644_n6052# Reset.t3 VDDD.t584 VDDD.t583 pfet_03v3 ad=2.535p pd=9.1u as=2.535p ps=9.1u w=3.9u l=0.28u
X52 VSSD.t221 a_n43562_6650# Bit_9.t3 VSSD.t220 nfet_03v3 ad=0.9516p pd=4.34u as=0.9516p ps=4.34u w=1.56u l=1.1u
X53 a_17296_n1944# a_14118_n1944.t4 a_12828_n3204.t3 VDDD.t510 pfet_03v3 ad=2.535p pd=9.1u as=2.535p ps=9.1u w=3.9u l=0.28u
X54 a_n51172_n3204.t0 a_n55792_n2082.t2 a_n55910_n1944# VSSD.t744 nfet_03v3 ad=0.9516p pd=4.34u as=0.9516p ps=4.34u w=1.56u l=0.28u
X55 SAR_Asynchronous_top_0/SAR_Asynchronous_Logic_integration_0/SAR_Asynchronous_Logic_0/D_reset_FF_1.Q.t3 a_n91612_11030.t2 a_n75760_12186.t1 VSSD.t496 nfet_03v3 ad=0.9516p pd=4.34u as=0.9516p ps=4.34u w=1.56u l=0.28u
X56 VDDD.t432 SAR_Asynchronous_top_0/SAR_Asynchronous_Logic_integration_0/SAR_Asynchronous_Logic_3/D_reset_FF_1.Q.t9 SAR_Asynchronous_top_0/SAR_Asynchronous_Logic_integration_0/SAR_Asynchronous_Logic_3/D_reset_FF_1.nQ VDDD.t431 pfet_03v3 ad=2.535p pd=9.1u as=2.535p ps=9.1u w=3.9u l=0.28u
X57 VSSD.t737 a_n55792_n2836.t2 a_n55792_n2082.t0 VSSD.t736 nfet_03v3 ad=0.9516p pd=4.34u as=0.9516p ps=4.34u w=1.56u l=0.28u
X58 a_n19172_n3204.t4 a_n23792_n2082.t2 a_n23910_n1944# VSSD.t410 nfet_03v3 ad=0.9516p pd=4.34u as=0.9516p ps=4.34u w=1.56u l=0.28u
X59 a_n15816_12056# SAR_Asynchronous_top_0/SAR_Asynchronous_Logic_integration_0/SAR_Asynchronous_Logic_1/D_reset_FF_1.Q.t9 VDDD.t710 VDDD.t709 pfet_03v3 ad=2.535p pd=9.1u as=2.535p ps=9.1u w=3.9u l=0.28u
X60 a_12204_6688.t1 Reset.t4 VSSD.t684 VSSD.t683 nfet_03v3 ad=0.9516p pd=4.34u as=0.9516p ps=4.34u w=1.56u l=0.28u
X61 a_n63638_n40380.t1 a_n92570_11594.t5 VSSD.t4 VSSD.t3 nfet_03v3 ad=0.9516p pd=4.34u as=0.9516p ps=4.34u w=1.56u l=0.28u
X62 a_n22548_n7312.t1 a_n23792_n7080.t2 SAR_Asynchronous_top_0/SAR_Asynchronous_Logic_integration_0/SAR_Asynchronous_Logic_3/D_reset_FF_1.Q.t6 VDDD.t417 pfet_03v3 ad=2.535p pd=9.1u as=2.535p ps=9.1u w=3.9u l=0.28u
X63 a_n79400_n28246.t3 a_n81028_n28246.t5 VSSD.t564 VSSD.t563 nfet_03v3 ad=0.9516p pd=4.34u as=0.9516p ps=4.34u w=1.56u l=0.28u
X64 a_3352_n7430# a_2122_n1986.t2 SAR_Asynchronous_top_0/SAR_Asynchronous_Logic_integration_0/SAR_Asynchronous_Logic_9/D_reset_FF_1.Q.t6 VSSD.t569 nfet_03v3 ad=0.9516p pd=4.34u as=0.9516p ps=4.34u w=1.56u l=0.28u
X65 a_27112_n40380.t1 a_26362_n40380.t2 VSSD.t637 VSSD.t636 nfet_03v3 ad=0.9516p pd=4.34u as=0.9516p ps=4.34u w=1.56u l=0.28u
X66 a_25600_n26986# a_23972_n28246.t5 VDDD.t447 VDDD.t446 pfet_03v3 ad=2.535p pd=9.1u as=2.535p ps=9.1u w=3.9u l=0.28u
X67 VSSD.t536 a_38108_7056.t2 a_38108_7810.t0 VSSD.t535 nfet_03v3 ad=0.9516p pd=4.34u as=0.9516p ps=4.34u w=1.56u l=0.28u
X68 a_n73180_n28246.t0 a_n92570_11594.t6 VSSD.t6 VSSD.t5 nfet_03v3 ad=0.9516p pd=4.34u as=0.9516p ps=4.34u w=1.56u l=0.28u
X69 a_51744_n28014.t0 a_50924_n28014.t2 VDDD.t514 VDDD.t513 pfet_03v3 ad=2.535p pd=9.1u as=2.535p ps=9.1u w=3.9u l=0.28u
X70 SAR_Asynchronous_top_0/SAR_Asynchronous_Logic_integration_0/SAR_Asynchronous_Logic_1/D_reset_FF_1.Q.t4 a_n25892_7810.t2 a_n19982_7948.t0 VDDD.t790 pfet_03v3 ad=2.535p pd=9.1u as=2.535p ps=9.1u w=3.9u l=0.28u
X71 a_6176_6688.t0 a_6108_7056.t2 a_5990_7948.t1 VSSD.t818 nfet_03v3 ad=0.9516p pd=4.34u as=0.9516p ps=4.34u w=1.56u l=0.28u
X72 a_n44338_n40380# a_n45422_n40600# VSSD.t757 VSSD.t756 nfet_03v3 ad=0.9516p pd=4.34u as=0.9516p ps=4.34u w=1.56u l=0.28u
X73 a_35496_11030.t1 a_n14820_n28246.t5 VSSD.t184 VSSD.t183 nfet_03v3 ad=0.9516p pd=4.34u as=0.9516p ps=4.34u w=1.56u l=0.28u
X74 VDDD.t290 a_n61878_n2740.t2 a_n61878_n1986.t0 VDDD.t289 pfet_03v3 ad=2.535p pd=9.1u as=2.535p ps=9.1u w=3.9u l=0.28u
X75 a_n51936_n7312.t0 a_n53564_n7312.t5 VSSD.t349 VSSD.t348 nfet_03v3 ad=0.9516p pd=4.34u as=0.9516p ps=4.34u w=1.56u l=0.28u
X76 VSSD.t686 Reset.t5 a_76064_n7312.t3 VSSD.t685 nfet_03v3 ad=0.9516p pd=4.34u as=0.9516p ps=4.34u w=1.56u l=0.28u
X77 a_77420_10796# a_70108_11028.t2 a_80184_10796.t1 VDDD.t320 pfet_03v3 ad=2.535p pd=9.1u as=2.535p ps=9.1u w=3.9u l=0.28u
X78 VDDD.t485 a_2122_n1986.t3 a_8208_n2836.t0 VDDD.t484 pfet_03v3 ad=2.535p pd=9.1u as=2.535p ps=9.1u w=3.9u l=0.28u
X79 Bit_7_n.t0 a_n17888_n40380.t2 Bit_7.t1 VDDD.t244 pfet_03v3 ad=2.535p pd=9.1u as=2.535p ps=9.1u w=3.9u l=0.28u
X80 a_67988_n28246.t3 a_66744_n28014.t2 a_70600_n28246.t3 VSSD.t214 nfet_03v3 ad=0.9516p pd=4.34u as=0.9516p ps=4.34u w=1.56u l=0.28u
X81 a_n19936_n7312.t4 a_n21564_n7312.t5 VSSD.t485 VSSD.t484 nfet_03v3 ad=0.9516p pd=4.34u as=0.9516p ps=4.34u w=1.56u l=0.28u
X82 a_45420_10796# a_38108_11028.t2 a_48184_10796.t1 VDDD.t422 pfet_03v3 ad=2.535p pd=9.1u as=2.535p ps=9.1u w=3.9u l=0.28u
X83 a_16184_10796.t0 SAR_Asynchronous_top_0/SAR_Asynchronous_Logic_integration_0/SAR_Asynchronous_Logic_5/D_reset_FF_1.Q.t9 VSSD.t515 VSSD.t514 nfet_03v3 ad=0.9516p pd=4.34u as=0.9516p ps=4.34u w=1.56u l=0.28u
X84 a_n85272_6688.t2 a_n89892_7056.t2 a_n90010_7948.t3 VDDD.t828 pfet_03v3 ad=2.535p pd=9.1u as=2.535p ps=9.1u w=3.9u l=0.28u
X85 VDDD.t609 a_72208_n2836.t2 a_72208_n2082.t0 VDDD.t608 pfet_03v3 ad=2.535p pd=9.1u as=2.535p ps=9.1u w=3.9u l=0.28u
X86 a_n81028_n26986# Set.t8 VDDD.t726 VDDD.t725 pfet_03v3 ad=2.535p pd=9.1u as=2.535p ps=9.1u w=3.9u l=0.28u
X87 a_15520_n7312.t3 a_8208_n7080.t2 a_10436_n7312.t4 VSSD.t462 nfet_03v3 ad=0.9516p pd=4.34u as=0.9516p ps=4.34u w=1.56u l=0.28u
X88 a_6108_11028.t0 a_5288_11028.t2 VDDD.t187 VDDD.t186 pfet_03v3 ad=2.535p pd=9.1u as=2.535p ps=9.1u w=3.9u l=0.28u
X89 a_3398_n1950.t2 a_2122_n2740.t2 SAR_Asynchronous_top_0/SAR_Asynchronous_Logic_integration_0/SAR_Asynchronous_Logic_9/D_reset_FF_1.Q.t2 VDDD.t225 pfet_03v3 ad=2.535p pd=9.1u as=2.535p ps=9.1u w=3.9u l=0.28u
X90 a_n54036_10796.t0 Reset.t6 a_n54036_12056# VDDD.t585 pfet_03v3 ad=2.535p pd=9.1u as=2.535p ps=9.1u w=3.9u l=0.28u
X91 VSSD.t610 a_39352_10796.t4 a_40336_10796.t4 VSSD.t609 nfet_03v3 ad=0.9516p pd=4.34u as=0.9516p ps=4.34u w=1.56u l=0.28u
X92 a_60662_n40380# a_59578_n40600# VDDD.t416 VDDD.t415 pfet_03v3 ad=2.535p pd=9.1u as=2.535p ps=9.1u w=3.9u l=0.28u
X93 a_38972_n28246.t1 a_37988_n28246.t4 a_38972_n26986# VDDD.t788 pfet_03v3 ad=2.535p pd=9.1u as=2.535p ps=9.1u w=3.9u l=0.28u
X94 VSSD.t667 clks.t3 a_n49400_n28246.t2 VSSD.t666 nfet_03v3 ad=0.9516p pd=4.34u as=0.9516p ps=4.34u w=1.56u l=0.28u
X95 a_74728_6688.t0 a_70108_7056.t2 a_69990_7948.t1 VDDD.t799 pfet_03v3 ad=2.535p pd=9.1u as=2.535p ps=9.1u w=3.9u l=0.28u
X96 VSSD.t688 Reset.t7 SAR_Asynchronous_top_0/SAR_Asynchronous_Logic_integration_0/SAR_Asynchronous_Logic_0/D_reset_FF_0.Q.t0 VSSD.t687 nfet_03v3 ad=0.9516p pd=4.34u as=0.9516p ps=4.34u w=1.56u l=0.28u
X97 Bit_7_n.t2 a_n18638_n40380.t2 Bit_7.t3 VSSD.t455 nfet_03v3 ad=0.9516p pd=4.34u as=0.9516p ps=4.34u w=1.56u l=0.28u
X98 VSSD.t829 Set.t9 a_n43180_n28246.t4 VSSD.t828 nfet_03v3 ad=0.9516p pd=4.34u as=0.9516p ps=4.34u w=1.56u l=0.28u
X99 a_8208_n7080.t1 a_7388_n7080.t2 VDDD.t408 VDDD.t407 pfet_03v3 ad=2.535p pd=9.1u as=2.535p ps=9.1u w=3.9u l=0.28u
X100 a_41362_n40380.t0 SAR_Asynchronous_top_0/SAR_Logic_0.CK4.t5 VDDD.t329 VDDD.t328 pfet_03v3 ad=2.535p pd=9.1u as=2.535p ps=9.1u w=3.9u l=0.28u
X101 a_n7012_n28246.t2 a_n8256_n28014.t2 a_n4400_n28246.t2 VSSD.t1009 nfet_03v3 ad=0.9516p pd=4.34u as=0.9516p ps=4.34u w=1.56u l=0.28u
X102 a_7352_10796.t0 a_6108_11028.t2 a_9964_10796.t3 VSSD.t967 nfet_03v3 ad=0.9516p pd=4.34u as=0.9516p ps=4.34u w=1.56u l=0.28u
X103 a_n48480_n7312.t2 a_n56612_n7080.t2 a_n53564_n7312.t3 VDDD.t496 pfet_03v3 ad=2.535p pd=9.1u as=2.535p ps=9.1u w=3.9u l=0.28u
X104 a_n82580_10796# a_n89892_11028.t2 a_n79816_10796.t3 VDDD.t564 pfet_03v3 ad=2.535p pd=9.1u as=2.535p ps=9.1u w=3.9u l=0.28u
X105 a_45420_10796# a_37288_11028.t3 a_40336_10796.t0 VDDD.t349 pfet_03v3 ad=2.535p pd=9.1u as=2.535p ps=9.1u w=3.9u l=0.28u
X106 a_39348_7948# Set.t10 a_38176_6688.t1 VDDD.t727 pfet_03v3 ad=2.535p pd=9.1u as=2.535p ps=9.1u w=3.9u l=0.28u
X107 a_n14704_n1944# a_n17882_n1944.t4 a_n19172_n3204.t2 VDDD.t472 pfet_03v3 ad=2.535p pd=9.1u as=2.535p ps=9.1u w=3.9u l=0.28u
X108 VDDD.t270 SAR_Asynchronous_top_0/SAR_Asynchronous_Logic_integration_0/SAR_Asynchronous_Logic_8/D_reset_FF_1.Q.t9 a_73448_n1944# VDDD.t269 pfet_03v3 ad=2.535p pd=9.1u as=2.535p ps=9.1u w=3.9u l=0.28u
X109 SAR_Asynchronous_top_0/SAR_Asynchronous_Logic_integration_0/SAR_Asynchronous_Logic_6/D_reset_FF_1.Q.t4 a_68388_11030.t2 a_84240_12186.t1 VSSD.t627 nfet_03v3 ad=0.9516p pd=4.34u as=0.9516p ps=4.34u w=1.56u l=0.28u
X110 a_44064_n6052# a_42436_n7312.t5 VDDD.t545 VDDD.t544 pfet_03v3 ad=2.535p pd=9.1u as=2.535p ps=9.1u w=3.9u l=0.28u
X111 Bit_7.t5 a_20240_12186.t3 VDDD.t439 VDDD.t438 pfet_03v3 ad=2.535p pd=9.1u as=2.535p ps=9.1u w=3.9u l=1.1u
X112 a_45568_7948# Reset.t8 a_44204_6688.t2 VDDD.t586 pfet_03v3 ad=2.535p pd=9.1u as=2.535p ps=9.1u w=3.9u l=0.28u
X113 VDDD.t331 SAR_Asynchronous_top_0/SAR_Logic_0.CK4.t6 a_34122_n2740.t0 VDDD.t330 pfet_03v3 ad=2.535p pd=9.1u as=2.535p ps=9.1u w=3.9u l=0.28u
X114 a_n55724_n3204.t3 Set.t11 VSSD.t831 VSSD.t830 nfet_03v3 ad=0.9516p pd=4.34u as=0.9516p ps=4.34u w=1.56u l=0.28u
X115 a_n56612_n7080.t0 clks.t4 VDDD.t571 VDDD.t570 pfet_03v3 ad=2.535p pd=9.1u as=2.535p ps=9.1u w=3.9u l=0.28u
X116 a_n51028_n28246.t2 a_n52012_n28246.t4 a_n51028_n26986# VDDD.t603 pfet_03v3 ad=2.535p pd=9.1u as=2.535p ps=9.1u w=3.9u l=0.28u
X117 a_n6028_n26986# Set.t12 VDDD.t729 VDDD.t728 pfet_03v3 ad=2.535p pd=9.1u as=2.535p ps=9.1u w=3.9u l=0.28u
X118 VSSD.t614 a_10728_6688.t5 a_12204_6688.t2 VSSD.t613 nfet_03v3 ad=0.9516p pd=4.34u as=0.9516p ps=4.34u w=1.56u l=0.28u
X119 VSSD.t980 a_66122_n2740.t2 a_66122_n1986.t1 VSSD.t979 nfet_03v3 ad=0.9516p pd=4.34u as=0.9516p ps=4.34u w=1.56u l=0.28u
X120 a_n17888_n40380.t0 a_n18638_n40380.t3 VSSD.t457 VSSD.t456 nfet_03v3 ad=0.9516p pd=4.34u as=0.9516p ps=4.34u w=1.56u l=0.28u
X121 a_n25376_n28014# a_n29820_n28246.t5 VSSD.t12 VSSD.t11 nfet_03v3 ad=0.9516p pd=4.34u as=0.9516p ps=4.34u w=1.56u l=0.28u
X122 a_20924_n28014.t0 Valid.t0 VDDD.t308 VDDD.t307 pfet_03v3 ad=2.535p pd=9.1u as=2.535p ps=9.1u w=3.9u l=0.28u
X123 a_73452_n7312.t1 a_71388_n7080.t2 SAR_Asynchronous_top_0/SAR_Asynchronous_Logic_integration_0/SAR_Asynchronous_Logic_8/D_reset_FF_1.Q.t2 VSSD.t369 nfet_03v3 ad=0.9516p pd=4.34u as=0.9516p ps=4.34u w=1.56u l=0.28u
X124 a_n24076_n28014.t0 Valid.t1 VDDD.t310 VDDD.t309 pfet_03v3 ad=2.535p pd=9.1u as=2.535p ps=9.1u w=3.9u l=0.28u
X125 VSSD.t833 Set.t13 a_n47816_10796.t2 VSSD.t832 nfet_03v3 ad=0.9516p pd=4.34u as=0.9516p ps=4.34u w=1.56u l=0.28u
X126 a_n2888_n40380.t0 a_n3638_n40380.t2 VDDD.t847 VDDD.t846 pfet_03v3 ad=2.535p pd=9.1u as=2.535p ps=9.1u w=3.9u l=0.28u
X127 a_n23664_10796.t4 Set.t14 VSSD.t835 VSSD.t834 nfet_03v3 ad=0.9516p pd=4.34u as=0.9516p ps=4.34u w=1.56u l=0.28u
X128 VDDD.t300 a_n61878_n1986.t2 a_n55792_n2836.t0 VDDD.t299 pfet_03v3 ad=2.535p pd=9.1u as=2.535p ps=9.1u w=3.9u l=0.28u
X129 VSSD.t260 a_n75944_n28246# a_n92570_11594.t2 VSSD.t259 nfet_03v3 ad=0.9516p pd=4.34u as=0.9516p ps=4.34u w=1.56u l=0.28u
X130 a_73452_n7312.t3 a_72208_n7080.t2 a_76064_n7312.t4 VSSD.t911 nfet_03v3 ad=0.9516p pd=4.34u as=0.9516p ps=4.34u w=1.56u l=0.28u
X131 a_52988_n28246.t3 a_50924_n28014.t3 a_22686_n2406.t4 VSSD.t605 nfet_03v3 ad=0.9516p pd=4.34u as=0.9516p ps=4.34u w=1.56u l=0.28u
X132 a_n66028_n28246.t2 Set.t15 VSSD.t50 VSSD.t49 nfet_03v3 ad=0.9516p pd=4.34u as=0.9516p ps=4.34u w=1.56u l=0.28u
X133 a_n24648_10796.t0 a_n25892_11028.t2 a_n22036_10796.t2 VSSD.t354 nfet_03v3 ad=0.9516p pd=4.34u as=0.9516p ps=4.34u w=1.56u l=0.28u
X134 a_73964_10796.t4 a_72336_10796.t5 VSSD.t544 VSSD.t543 nfet_03v3 ad=0.9516p pd=4.34u as=0.9516p ps=4.34u w=1.56u l=0.28u
X135 a_n23724_n3204.t2 a_n23792_n2836.t2 a_n23910_n1944# VSSD.t332 nfet_03v3 ad=0.9516p pd=4.34u as=0.9516p ps=4.34u w=1.56u l=0.28u
X136 a_74436_n7312.t3 Set.t16 VSSD.t52 VSSD.t51 nfet_03v3 ad=0.9516p pd=4.34u as=0.9516p ps=4.34u w=1.56u l=0.28u
X137 a_n64400_n26986# a_n66028_n28246.t5 VDDD.t543 VDDD.t542 pfet_03v3 ad=2.535p pd=9.1u as=2.535p ps=9.1u w=3.9u l=0.28u
X138 SAR_Asynchronous_top_0/SAR_Asynchronous_Logic_integration_0/SAR_Asynchronous_Logic_5/D_reset_FF_1.Q.t4 a_13420_10796# a_14544_12056# VDDD.t457 pfet_03v3 ad=2.535p pd=9.1u as=2.535p ps=9.1u w=3.9u l=0.28u
X139 a_n9314_n2406.t0 clks.t5 VSSD.t669 VSSD.t668 nfet_03v3 ad=0.9516p pd=4.34u as=0.9516p ps=4.34u w=1.56u l=0.28u
X140 a_6176_6688.t2 Set.t17 VSSD.t54 VSSD.t53 nfet_03v3 ad=0.9516p pd=4.34u as=0.9516p ps=4.34u w=1.56u l=0.28u
X141 a_n52912_n1944# a_n55910_n1944# SAR_Asynchronous_top_0/SAR_Asynchronous_Logic_integration_0/SAR_Asynchronous_Logic_2/D_reset_FF_1.Q.t0 VDDD.t169 pfet_03v3 ad=2.535p pd=9.1u as=2.535p ps=9.1u w=3.9u l=0.28u
X142 a_9448_n1944# Set.t18 a_8276_n3204.t2 VDDD.t65 pfet_03v3 ad=2.535p pd=9.1u as=2.535p ps=9.1u w=3.9u l=0.28u
X143 VSSD.t56 Set.t19 a_50284_n7312.t2 VSSD.t55 nfet_03v3 ad=0.9516p pd=4.34u as=0.9516p ps=4.34u w=1.56u l=0.28u
X144 a_75662_n40380# a_74578_n40600# VSSD.t335 VSSD.t334 nfet_03v3 ad=0.9516p pd=4.34u as=0.9516p ps=4.34u w=1.56u l=0.28u
X145 a_49624_n28014# a_22686_n2406.t5 VSSD.t436 VSSD.t435 nfet_03v3 ad=0.9516p pd=4.34u as=0.9516p ps=4.34u w=1.56u l=0.28u
X146 SAR_Asynchronous_top_0/SAR_Asynchronous_Logic_integration_0/SAR_Asynchronous_Logic_5/D_reset_FF_0.Q.t2 a_5990_7948.t4 VSSD.t908 VSSD.t907 nfet_03v3 ad=0.9516p pd=4.34u as=0.9516p ps=4.34u w=1.56u l=0.28u
X147 SAR_Asynchronous_top_0/SAR_Asynchronous_Logic_integration_0/SAR_Asynchronous_Logic_2/D_reset_FF_0.Q.t2 Reset.t9 VSSD.t690 VSSD.t689 nfet_03v3 ad=0.9516p pd=4.34u as=0.9516p ps=4.34u w=1.56u l=0.28u
X148 VDDD.t600 a_n60602_n1950.t3 a_n61810_n3108.t3 VDDD.t599 pfet_03v3 ad=2.535p pd=9.1u as=2.535p ps=9.1u w=3.9u l=1.1u
X149 a_n24648_10796.t2 a_n26712_11028.t2 vocp.t10 VSSD.t430 nfet_03v3 ad=0.9516p pd=4.34u as=0.9516p ps=4.34u w=1.56u l=0.28u
X150 SAR_Asynchronous_top_0/SAR_Asynchronous_Logic_integration_0/SAR_Asynchronous_Logic_0/D_reset_FF_0.Q.t2 a_n90010_7948.t4 VSSD.t914 VSSD.t913 nfet_03v3 ad=0.9516p pd=4.34u as=0.9516p ps=4.34u w=1.56u l=0.28u
X151 SAR_Asynchronous_top_0/SAR_Asynchronous_Logic_integration_0/SAR_Asynchronous_Logic_8/D_reset_FF_0.nQ SAR_Asynchronous_top_0/SAR_Asynchronous_Logic_integration_0/SAR_Asynchronous_Logic_8/D_reset_FF_0.Q.t3 VDDD.t374 VDDD.t373 pfet_03v3 ad=2.535p pd=9.1u as=2.535p ps=9.1u w=3.9u l=0.28u
X152 VSSD.t58 Set.t20 a_18284_n7312.t2 VSSD.t57 nfet_03v3 ad=0.9516p pd=4.34u as=0.9516p ps=4.34u w=1.56u l=0.28u
X153 a_8972_n28246.t2 Set.t21 VSSD.t60 VSSD.t59 nfet_03v3 ad=0.9516p pd=4.34u as=0.9516p ps=4.34u w=1.56u l=0.28u
X154 a_n54036_12056# a_n55664_10796.t5 VDDD.t661 VDDD.t660 pfet_03v3 ad=2.535p pd=9.1u as=2.535p ps=9.1u w=3.9u l=0.28u
X155 a_n60504_11030.t1 a_n60570_11594.t6 VSSD.t560 VSSD.t559 nfet_03v3 ad=0.9516p pd=4.34u as=0.9516p ps=4.34u w=1.56u l=0.28u
X156 a_n55376_n28014# a_n60570_11594.t7 VDDD.t17 VDDD.t16 pfet_03v3 ad=2.535p pd=9.1u as=2.535p ps=9.1u w=3.9u l=0.28u
X157 a_n89824_6688.t2 Set.t22 VSSD.t62 VSSD.t61 nfet_03v3 ad=0.9516p pd=4.34u as=0.9516p ps=4.34u w=1.56u l=0.28u
X158 a_15520_n7312.t2 a_8208_n7080.t3 a_18284_n7312.t4 VDDD.t245 pfet_03v3 ad=2.535p pd=9.1u as=2.535p ps=9.1u w=3.9u l=0.28u
X159 a_56362_n40380.t1 a_22686_n2406.t6 VSSD.t438 VSSD.t437 nfet_03v3 ad=0.9516p pd=4.34u as=0.9516p ps=4.34u w=1.56u l=0.28u
X160 a_9964_12056# a_8336_10796.t5 VDDD.t917 VDDD.t916 pfet_03v3 ad=2.535p pd=9.1u as=2.535p ps=9.1u w=3.9u l=0.28u
X161 VDDD.t556 a_n28602_n1950.t3 Bit_1.t7 VDDD.t555 pfet_03v3 ad=2.535p pd=9.1u as=2.535p ps=9.1u w=3.9u l=1.1u
X162 a_75088_n1944# a_72090_n1944# SAR_Asynchronous_top_0/SAR_Asynchronous_Logic_integration_0/SAR_Asynchronous_Logic_8/D_reset_FF_1.Q.t4 VDDD.t495 pfet_03v3 ad=2.535p pd=9.1u as=2.535p ps=9.1u w=3.9u l=0.28u
X163 a_n49696_n3204.t3 Reset.t10 VSSD.t692 VSSD.t691 nfet_03v3 ad=0.9516p pd=4.34u as=0.9516p ps=4.34u w=1.56u l=0.28u
X164 CK_1.t0 a_74056_n28246# a_75180_n26986# VDDD.t443 pfet_03v3 ad=2.535p pd=9.1u as=2.535p ps=9.1u w=3.9u l=0.28u
X165 a_78304_n3204.t1 a_72208_n2082.t3 a_78118_n1944.t1 VSSD.t465 nfet_03v3 ad=0.9516p pd=4.34u as=0.9516p ps=4.34u w=1.56u l=0.28u
X166 a_n28504_11030.t1 a_n44820_n28246.t6 VSSD.t700 VSSD.t699 nfet_03v3 ad=0.9516p pd=4.34u as=0.9516p ps=4.34u w=1.56u l=0.28u
X167 VDDD.t573 clks.t6 a_n25892_7056.t0 VDDD.t572 pfet_03v3 ad=2.535p pd=9.1u as=2.535p ps=9.1u w=3.9u l=0.28u
X168 a_25600_n28246.t2 clks.t7 a_25600_n26986# VDDD.t574 pfet_03v3 ad=2.535p pd=9.1u as=2.535p ps=9.1u w=3.9u l=0.28u
X169 a_n57892_11028.t0 a_n58712_11028.t3 VDDD.t466 VDDD.t465 pfet_03v3 ad=2.535p pd=9.1u as=2.535p ps=9.1u w=3.9u l=0.28u
X170 a_80184_10796.t3 Set.t23 a_80184_12056# VDDD.t66 pfet_03v3 ad=2.535p pd=9.1u as=2.535p ps=9.1u w=3.9u l=0.28u
X171 a_84240_12186.t0 a_68388_11030.t3 VDDD.t530 VDDD.t529 pfet_03v3 ad=2.535p pd=9.1u as=2.535p ps=9.1u w=3.9u l=1.1u
X172 VDDD.t849 SAR_Asynchronous_top_0/SAR_Asynchronous_Logic_integration_0/SAR_Asynchronous_Logic_1/D_reset_FF_0.Q.t3 SAR_Asynchronous_top_0/SAR_Asynchronous_Logic_integration_0/SAR_Asynchronous_Logic_1/D_reset_FF_0.nQ VDDD.t848 pfet_03v3 ad=2.535p pd=9.1u as=2.535p ps=9.1u w=3.9u l=0.28u
X173 a_n45944_n28246# a_n54076_n28014.t2 a_n43180_n28246.t2 VSSD.t409 nfet_03v3 ad=0.9516p pd=4.34u as=0.9516p ps=4.34u w=1.56u l=0.28u
X174 VDDD.t588 Reset.t11 a_n20912_n1944# VDDD.t587 pfet_03v3 ad=2.535p pd=9.1u as=2.535p ps=9.1u w=3.9u l=0.28u
X175 a_14304_n3204.t1 Reset.t12 VSSD.t694 VSSD.t693 nfet_03v3 ad=0.9516p pd=4.34u as=0.9516p ps=4.34u w=1.56u l=0.28u
X176 VSSD.t939 a_n37012_n28246.t4 a_n36028_n28246.t4 VSSD.t938 nfet_03v3 ad=0.9516p pd=4.34u as=0.9516p ps=4.34u w=1.56u l=0.28u
X177 VDDD.t535 a_42728_6688.t5 a_45568_7948# VDDD.t534 pfet_03v3 ad=2.535p pd=9.1u as=2.535p ps=9.1u w=3.9u l=0.28u
X178 SAR_Asynchronous_top_0/SAR_Asynchronous_Logic_integration_0/SAR_Asynchronous_Logic_3/D_reset_FF_0.nQ SAR_Asynchronous_top_0/SAR_Asynchronous_Logic_integration_0/SAR_Asynchronous_Logic_3/D_reset_FF_0.Q.t4 VDDD.t812 VDDD.t811 pfet_03v3 ad=2.535p pd=9.1u as=2.535p ps=9.1u w=3.9u l=0.28u
X179 a_n34400_n28246.t0 clks.t8 a_n34400_n26986# VDDD.t575 pfet_03v3 ad=2.535p pd=9.1u as=2.535p ps=9.1u w=3.9u l=0.28u
X180 a_n944_n28246# a_n9076_n28014.t2 a_n6028_n28246.t0 VDDD.t104 pfet_03v3 ad=2.535p pd=9.1u as=2.535p ps=9.1u w=3.9u l=0.28u
X181 a_48184_10796.t3 Set.t24 a_48184_12056# VDDD.t67 pfet_03v3 ad=2.535p pd=9.1u as=2.535p ps=9.1u w=3.9u l=0.28u
X182 a_n60944_n28246# a_n68256_n28014.t2 a_n66028_n28246.t1 VSSD.t308 nfet_03v3 ad=0.9516p pd=4.34u as=0.9516p ps=4.34u w=1.56u l=0.28u
X183 a_72276_n3204.t4 a_72208_n2836.t3 a_72090_n1944# VSSD.t716 nfet_03v3 ad=0.9516p pd=4.34u as=0.9516p ps=4.34u w=1.56u l=0.28u
X184 a_35352_n7430# a_34122_n2740.t2 SAR_Asynchronous_top_0/SAR_Asynchronous_Logic_integration_0/SAR_Asynchronous_Logic_10/D_reset_FF_1.Q.t2 VDDD.t919 pfet_03v3 ad=2.535p pd=9.1u as=2.535p ps=9.1u w=3.9u l=0.28u
X185 a_79624_n28014# CK_1.t4 VDDD.t550 VDDD.t549 pfet_03v3 ad=2.535p pd=9.1u as=2.535p ps=9.1u w=3.9u l=0.28u
X186 VCM.t18 a_67496_11030.t3 Bit_5.t7 VSSD.t868 nfet_03v3 ad=0.9516p pd=4.34u as=0.9516p ps=4.34u w=1.56u l=0.28u
X187 a_n82580_10796# a_n89892_11028.t3 a_n87664_10796.t3 VSSD.t664 nfet_03v3 ad=0.9516p pd=4.34u as=0.9516p ps=4.34u w=1.56u l=0.28u
X188 VDDD.t861 a_12828_n3204.t5 a_15668_n1944# VDDD.t860 pfet_03v3 ad=2.535p pd=9.1u as=2.535p ps=9.1u w=3.9u l=0.28u
X189 VDDD.t227 a_2122_n2740.t3 a_2122_n1986.t0 VDDD.t226 pfet_03v3 ad=2.535p pd=9.1u as=2.535p ps=9.1u w=3.9u l=0.28u
X190 a_n33638_n40380.t1 a_n44820_n28246.t7 VSSD.t702 VSSD.t701 nfet_03v3 ad=0.9516p pd=4.34u as=0.9516p ps=4.34u w=1.56u l=0.28u
X191 VDDD.t577 clks.t9 a_70108_7056.t0 VDDD.t576 pfet_03v3 ad=2.535p pd=9.1u as=2.535p ps=9.1u w=3.9u l=0.28u
X192 Bit_4.t7 a_67352_n7430# VSSD.t1053 VSSD.t1052 nfet_03v3 ad=0.9516p pd=4.34u as=0.9516p ps=4.34u w=1.56u l=1.1u
X193 a_13420_10796# a_5288_11028.t3 a_16184_10796.t1 VSSD.t223 nfet_03v3 ad=0.9516p pd=4.34u as=0.9516p ps=4.34u w=1.56u l=0.28u
X194 VSSD.t64 Set.t25 a_10728_6688.t1 VSSD.t63 nfet_03v3 ad=0.9516p pd=4.34u as=0.9516p ps=4.34u w=1.56u l=0.28u
X195 a_n61810_n3108.t2 a_n60648_n7430# VSSD.t500 VSSD.t499 nfet_03v3 ad=0.9516p pd=4.34u as=0.9516p ps=4.34u w=1.56u l=1.1u
X196 a_n49400_n28246.t3 a_n51028_n28246.t5 VSSD.t612 VSSD.t611 nfet_03v3 ad=0.9516p pd=4.34u as=0.9516p ps=4.34u w=1.56u l=0.28u
X197 a_10436_n7312.t1 a_9452_n7312.t4 a_10436_n6052# VDDD.t258 pfet_03v3 ad=2.535p pd=9.1u as=2.535p ps=9.1u w=3.9u l=0.28u
X198 VSSD.t1019 Reset.t13 a_n22036_10796.t4 VSSD.t1018 nfet_03v3 ad=0.9516p pd=4.34u as=0.9516p ps=4.34u w=1.56u l=0.28u
X199 VDDD.t327 SAR_Asynchronous_top_0/SAR_Asynchronous_Logic_integration_0/SAR_Asynchronous_Logic_2/D_reset_FF_1.Q.t9 a_n54552_n1944# VDDD.t326 pfet_03v3 ad=2.535p pd=9.1u as=2.535p ps=9.1u w=3.9u l=0.28u
X200 VSSD.t289 a_n16480_n7312.t4 SAR_Asynchronous_top_0/SAR_Asynchronous_Logic_integration_0/SAR_Asynchronous_Logic_3/D_reset_FF_0.Q.t0 VSSD.t288 nfet_03v3 ad=0.9516p pd=4.34u as=0.9516p ps=4.34u w=1.56u l=0.28u
X201 a_21744_n28014.t0 a_20924_n28014.t3 VDDD.t404 VDDD.t403 pfet_03v3 ad=2.535p pd=9.1u as=2.535p ps=9.1u w=3.9u l=0.28u
X202 VSSD.t1021 Reset.t14 a_73964_10796.t3 VSSD.t1020 nfet_03v3 ad=0.9516p pd=4.34u as=0.9516p ps=4.34u w=1.56u l=0.28u
X203 a_n60648_n7430# a_n61878_n1986.t3 SAR_Asynchronous_top_0/SAR_Asynchronous_Logic_integration_0/SAR_Asynchronous_Logic_2/D_reset_FF_1.Q.t4 VSSD.t382 nfet_03v3 ad=0.9516p pd=4.34u as=0.9516p ps=4.34u w=1.56u l=0.28u
X204 a_n14338_n40380# a_n15422_n40600# VSSD.t511 VSSD.t510 nfet_03v3 ad=0.9516p pd=4.34u as=0.9516p ps=4.34u w=1.56u l=0.28u
X205 a_n43180_n28246.t1 a_n44820_n28246.t8 VSSD.t704 VSSD.t703 nfet_03v3 ad=0.9516p pd=4.34u as=0.9516p ps=4.34u w=1.56u l=0.28u
X206 a_n87664_10796.t0 a_n88648_10796.t4 a_n87664_12056# VDDD.t42 pfet_03v3 ad=2.535p pd=9.1u as=2.535p ps=9.1u w=3.9u l=0.28u
X207 VSSD.t1023 Reset.t15 SAR_Asynchronous_top_0/SAR_Asynchronous_Logic_integration_0/SAR_Asynchronous_Logic_5/D_reset_FF_0.Q.t0 VSSD.t1022 nfet_03v3 ad=0.9516p pd=4.34u as=0.9516p ps=4.34u w=1.56u l=0.28u
X208 a_40276_n3204.t2 Set.t26 VSSD.t66 VSSD.t65 nfet_03v3 ad=0.9516p pd=4.34u as=0.9516p ps=4.34u w=1.56u l=0.28u
X209 Bit_1.t4 a_n28648_n7430# VSSD.t182 VSSD.t181 nfet_03v3 ad=0.9516p pd=4.34u as=0.9516p ps=4.34u w=1.56u l=1.1u
X210 VSSD.t982 SAR_Asynchronous_top_0/SAR_Asynchronous_Logic_integration_0/SAR_Asynchronous_Logic_1/D_reset_FF_0.Q.t4 a_n25824_6688.t0 VSSD.t981 nfet_03v3 ad=0.9516p pd=4.34u as=0.9516p ps=4.34u w=1.56u l=0.28u
X211 a_68972_n28246.t0 Set.t27 VSSD.t68 VSSD.t67 nfet_03v3 ad=0.9516p pd=4.34u as=0.9516p ps=4.34u w=1.56u l=0.28u
X212 Bit_4.t5 a_66122_n2740.t3 VCM.t8 VSSD.t375 nfet_03v3 ad=0.9516p pd=4.34u as=0.9516p ps=4.34u w=1.56u l=0.28u
X213 a_37988_n28246.t2 a_36744_n28014.t2 a_40600_n28246.t3 VSSD.t909 nfet_03v3 ad=0.9516p pd=4.34u as=0.9516p ps=4.34u w=1.56u l=0.28u