* NGSPICE file created from clockGeneratorLayout.ext - technology: gf180mcuD

.subckt clockGeneratorLayout GND IBIAS VDD OUT
X0 a_16964_8348.t0 GND.t30 cap_mim_2f0_m4m5_noshield c_width=42u c_length=10u
X1 GND.t335 GND.t334 GND.t335 GND.t17 nfet_03v3 ad=0.672p pd=3.44u as=0 ps=0 w=0.6u l=0.6u
X2 a_21743_6100.t13 a_21743_6748.t14 GND.t8 GND.t7 nfet_03v3 ad=0.672p pd=3.44u as=0.672p ps=3.44u w=0.6u l=0.6u
X3 a_21743_6100.t3 a_16964_8348.t3 a_21659_3242.t7 w_23841_n458# pfet_03v3 ad=0.696p pd=3.52u as=0.696p ps=3.52u w=0.6u l=0.6u
X4 a_21659_3242.t23 a_11345_12294.t2 VDD.t37 VDD.t10 pfet_03v3 ad=0.52p pd=2.52u as=1.3p ps=5.3u w=2u l=2u
X5 GND.t333 GND.t332 GND.t333 GND.t135 nfet_03v3 ad=0.672p pd=3.44u as=0 ps=0 w=0.6u l=0.6u
X6 VDD.t262 VDD.t261 VDD.t262 w_15348_6286# pfet_03v3 ad=1.3p pd=5.3u as=0 ps=0 w=2u l=2u
X7 a_11300_8092.t7 a_11300_8092.t6 a_16434_7468.t1 w_15348_6286# pfet_03v3 ad=1.3p pd=5.3u as=1.3p ps=5.3u w=2u l=2u
X8 VDD.t260 VDD.t259 VDD.t260 w_23841_n458# pfet_03v3 ad=0.696p pd=3.52u as=0 ps=0 w=0.6u l=0.6u
X9 a_19582_6043.t2 a_25891_6334.t4 a_28935_6098# w_23841_n458# pfet_03v3 ad=0.696p pd=3.52u as=0.696p ps=3.52u w=0.6u l=0.6u
X10 a_25891_n1726.t1 a_25891_n1726.t0 a_28583_n2146# w_23841_n458# pfet_03v3 ad=0.696p pd=3.52u as=0.696p ps=3.52u w=0.6u l=0.6u
X11 GND.t331 GND.t330 GND.t331 GND.t102 nfet_03v3 ad=0.672p pd=3.44u as=0 ps=0 w=0.6u l=0.6u
X12 VDD.t36 a_11345_12294.t2 a_21659_3242.t15 VDD.t8 pfet_03v3 ad=0.52p pd=2.52u as=0.52p ps=2.52u w=2u l=2u
X13 a_21743_n1960.t8 a_9120_14251.t2 a_21659_n106.t11 w_23841_n458# pfet_03v3 ad=0.696p pd=3.52u as=0.696p ps=3.52u w=0.6u l=0.6u
X14 VDD.t258 VDD.t257 VDD.t258 w_15348_6286# pfet_03v3 ad=1.3p pd=5.3u as=0 ps=0 w=2u l=2u
X15 VDD.t256 VDD.t255 VDD.t256 w_23841_n458# pfet_03v3 ad=0.696p pd=3.52u as=0 ps=0 w=0.6u l=0.6u
X16 a_21743_n2608.t11 a_16964_8348.t4 a_21659_n106.t7 w_23841_n458# pfet_03v3 ad=0.696p pd=3.52u as=0.696p ps=3.52u w=0.6u l=0.6u
X17 VDD.t254 VDD.t253 VDD.t254 w_23841_n458# pfet_03v3 ad=0.696p pd=3.52u as=0 ps=0 w=0.6u l=0.6u
X18 a_16434_7468.t21 a_16434_7468.t20 VDD.t279 w_15348_6286# pfet_03v3 ad=1.3p pd=5.3u as=1.3p ps=5.3u w=2u l=2u
X19 a_9120_14251.t1 a_28848_14251# GND.t0 ppolyf_u_1k r_width=1u r_length=98u
X20 a_9938_8092.t55 a_10060_n1528.t13 GND.t411 GND.t70 nfet_03v3 ad=1.22p pd=5.22u as=1.22p ps=5.22u w=2u l=2u
X21 a_9938_8092.t54 a_10060_n1528.t14 GND.t375 GND.t204 nfet_03v3 ad=1.22p pd=5.22u as=1.22p ps=5.22u w=2u l=2u
X22 a_21743_n2608.t10 a_16964_8348.t5 a_21659_n106.t1 w_23841_n458# pfet_03v3 ad=0.696p pd=3.52u as=0.696p ps=3.52u w=0.6u l=0.6u
X23 GND.t329 GND.t328 GND.t329 GND.t89 nfet_03v3 ad=0.672p pd=3.44u as=0 ps=0 w=0.6u l=0.6u
X24 a_9938_8092.t53 a_10060_n1528.t15 GND.t406 GND.t13 nfet_03v3 ad=1.22p pd=5.22u as=1.22p ps=5.22u w=2u l=2u
X25 a_21743_6748.t5 a_21743_6100.t14 GND.t357 GND.t7 nfet_03v3 ad=0.672p pd=3.44u as=0.672p ps=3.44u w=0.6u l=0.6u
X26 a_11618_8092.t6 a_10060_n1528.t16 GND.t416 GND.t175 nfet_03v3 ad=1.22p pd=5.22u as=1.22p ps=5.22u w=2u l=2u
X27 VDD.t252 VDD.t251 VDD.t252 w_23841_n458# pfet_03v3 ad=0.696p pd=3.52u as=0 ps=0 w=0.6u l=0.6u
X28 GND.t327 GND.t326 GND.t327 GND.t152 nfet_03v3 ad=0.672p pd=3.44u as=0 ps=0 w=0.6u l=0.6u
X29 a_19718_7047# OUT.t0 a_19582_6479.t0 VDD.t271 pfet_03v3 ad=0.39p pd=2.5u as=0.39p ps=2.5u w=0.6u l=0.6u
X30 OUT.t0 a_19582_6043.t3 GND.t368 GND.t367 nfet_03v3 ad=0.366p pd=2.42u as=0.366p ps=2.42u w=0.6u l=0.6u
X31 VDD.t250 VDD.t249 VDD.t250 w_23841_n458# pfet_03v3 ad=0.696p pd=3.52u as=0 ps=0 w=0.6u l=0.6u
X32 a_25891_6334.t1 a_21743_6748.t15 GND.t10 GND.t9 nfet_03v3 ad=0.672p pd=3.44u as=0.672p ps=3.44u w=0.6u l=0.6u
X33 GND.t325 GND.t324 GND.t325 GND.t144 nfet_03v3 ad=0.672p pd=3.44u as=0 ps=0 w=0.6u l=0.6u
X34 a_10778_8092.t27 a_10060_n1528.t17 GND.t354 GND.t13 nfet_03v3 ad=1.22p pd=5.22u as=1.22p ps=5.22u w=2u l=2u
X35 a_11345_12294.t1 a_11345_12294.t0 VDD.t35 VDD.t34 pfet_03v3 ad=1.3p pd=5.3u as=1.3p ps=5.3u w=2u l=2u
X36 a_21743_n1960.t7 a_9120_14251.t3 a_21659_n106.t10 w_23841_n458# pfet_03v3 ad=0.696p pd=3.52u as=0.696p ps=3.52u w=0.6u l=0.6u
X37 a_21743_6748.t4 a_21743_6100.t15 GND.t342 GND.t79 nfet_03v3 ad=0.672p pd=3.44u as=0.672p ps=3.44u w=0.6u l=0.6u
X38 GND.t323 GND.t322 GND.t323 GND.t50 nfet_03v3 ad=1.22p pd=5.22u as=0 ps=0 w=2u l=2u
X39 a_21743_n2608.t13 a_21743_n1960.t14 GND.t372 GND.t76 nfet_03v3 ad=0.672p pd=3.44u as=0.672p ps=3.44u w=0.6u l=0.6u
X40 VDD.t248 VDD.t247 VDD.t248 w_23841_n458# pfet_03v3 ad=0.696p pd=3.52u as=0 ps=0 w=0.6u l=0.6u
X41 VDD.t246 VDD.t245 VDD.t246 w_15348_6286# pfet_03v3 ad=1.3p pd=5.3u as=0 ps=0 w=2u l=2u
X42 a_11345_12294.t0 a_10060_n1528.t18 GND.t346 GND.t345 nfet_03v3 ad=0.8p pd=2.8u as=1.22p ps=5.22u w=2u l=2u
X43 VDD.t244 VDD.t243 VDD.t244 w_23841_n458# pfet_03v3 ad=0.696p pd=3.52u as=0 ps=0 w=0.6u l=0.6u
X44 a_10778_8092.t26 a_10060_n1528.t19 GND.t419 GND.t175 nfet_03v3 ad=1.22p pd=5.22u as=1.22p ps=5.22u w=2u l=2u
X45 GND.t321 GND.t320 GND.t321 GND.t204 nfet_03v3 ad=1.22p pd=5.22u as=0 ps=0 w=2u l=2u
X46 a_21743_n1960.t9 a_21743_n2608.t14 GND.t446 GND.t76 nfet_03v3 ad=0.672p pd=3.44u as=0.672p ps=3.44u w=0.6u l=0.6u
X47 VDD.t242 VDD.t241 VDD.t242 w_23841_n458# pfet_03v3 ad=0.696p pd=3.52u as=0 ps=0 w=0.6u l=0.6u
X48 VDD.t240 VDD.t239 VDD.t240 w_15348_6286# pfet_03v3 ad=1.3p pd=5.3u as=0 ps=0 w=2u l=2u
X49 VDD.t238 VDD.t237 VDD.t238 w_23841_n458# pfet_03v3 ad=0.696p pd=3.52u as=0 ps=0 w=0.6u l=0.6u
X50 a_21659_3242.t13 a_11345_12294.t2 VDD.t33 VDD.t6 pfet_03v3 ad=0.52p pd=2.52u as=0.52p ps=2.52u w=2u l=2u
X51 a_16964_8348.t2 a_11300_8092.t8 a_16434_8348.t1 w_15348_6286# pfet_03v3 ad=1.3p pd=5.3u as=1.3p ps=5.3u w=2u l=2u
X52 VDD.t236 VDD.t235 VDD.t236 w_15348_6286# pfet_03v3 ad=1.3p pd=5.3u as=0 ps=0 w=2u l=2u
X53 GND.t319 GND.t318 GND.t319 GND.t175 nfet_03v3 ad=1.22p pd=5.22u as=0 ps=0 w=2u l=2u
X54 a_9938_8092.t52 a_10060_n1528.t20 GND.t426 GND.t172 nfet_03v3 ad=1.22p pd=5.22u as=1.22p ps=5.22u w=2u l=2u
X55 a_25891_n1726.t2 a_21743_n2608.t15 GND.t16 GND.t15 nfet_03v3 ad=0.672p pd=3.44u as=0.672p ps=3.44u w=0.6u l=0.6u
X56 GND.t317 GND.t316 GND.t317 GND.t50 nfet_03v3 ad=1.22p pd=5.22u as=0 ps=0 w=2u l=2u
X57 VDD.t32 a_11345_12294.t2 a_21659_3242.t12 VDD.t4 pfet_03v3 ad=1.3p pd=5.3u as=0.52p ps=2.52u w=2u l=2u
X58 VDD.t234 VDD.t233 VDD.t234 w_23841_n458# pfet_03v3 ad=0.696p pd=3.52u as=0 ps=0 w=0.6u l=0.6u
X59 GND.t315 GND.t314 GND.t315 GND.t172 nfet_03v3 ad=1.22p pd=5.22u as=0 ps=0 w=2u l=2u
X60 a_9938_8092.t51 a_10060_n1528.t21 GND.t24 GND.t13 nfet_03v3 ad=1.22p pd=5.22u as=1.22p ps=5.22u w=2u l=2u
X61 a_11618_8092.t5 a_10060_n1528.t22 GND.t6 GND.t5 nfet_03v3 ad=1.22p pd=5.22u as=1.22p ps=5.22u w=2u l=2u
X62 a_19582_7363.t2 a_21743_n1960.t15 GND.t421 GND.t15 nfet_03v3 ad=0.672p pd=3.44u as=0.672p ps=3.44u w=0.6u l=0.6u
X63 a_16434_8348.t11 a_16434_7468.t22 VDD.t280 w_15348_6286# pfet_03v3 ad=1.3p pd=5.3u as=1.3p ps=5.3u w=2u l=2u
X64 a_21743_n2608.t9 a_16964_8348.t6 a_21659_n106.t5 w_23841_n458# pfet_03v3 ad=0.696p pd=3.52u as=0.696p ps=3.52u w=0.6u l=0.6u
X65 VDD.t232 VDD.t231 VDD.t232 w_23841_n458# pfet_03v3 ad=0.696p pd=3.52u as=0 ps=0 w=0.6u l=0.6u
X66 a_9938_8092.t50 a_10060_n1528.t23 GND.t14 GND.t13 nfet_03v3 ad=1.22p pd=5.22u as=1.22p ps=5.22u w=2u l=2u
X67 a_19582_6043.t1 a_21743_6100.t16 GND.t343 GND.t9 nfet_03v3 ad=0.672p pd=3.44u as=0.672p ps=3.44u w=0.6u l=0.6u
X68 VDD.t230 VDD.t229 VDD.t230 w_23841_n458# pfet_03v3 ad=0.696p pd=3.52u as=0 ps=0 w=0.6u l=0.6u
X69 VDD.t228 VDD.t227 VDD.t228 w_23841_n458# pfet_03v3 ad=0.696p pd=3.52u as=0 ps=0 w=0.6u l=0.6u
X70 VDD.t226 VDD.t225 VDD.t226 w_23841_n458# pfet_03v3 ad=0.696p pd=3.52u as=0 ps=0 w=0.6u l=0.6u
X71 a_21743_6100.t12 a_21743_6748.t16 GND.t428 GND.t79 nfet_03v3 ad=0.672p pd=3.44u as=0.672p ps=3.44u w=0.6u l=0.6u
X72 a_16964_8348.t0 GND.t29 cap_mim_2f0_m4m5_noshield c_width=42u c_length=10u
X73 GND.t313 GND.t312 GND.t313 GND.t86 nfet_03v3 ad=1.22p pd=5.22u as=0 ps=0 w=2u l=2u
X74 GND.t311 GND.t310 GND.t311 GND.t3 nfet_03v3 ad=0.672p pd=3.44u as=0 ps=0 w=0.6u l=0.6u
X75 a_21659_n106.t27 a_11345_12294.t3 VDD.t31 VDD.t26 pfet_03v3 ad=0.52p pd=2.52u as=1.3p ps=5.3u w=2u l=2u
X76 VDD.t224 VDD.t223 VDD.t224 w_23841_n458# pfet_03v3 ad=0.696p pd=3.52u as=0 ps=0 w=0.6u l=0.6u
X77 GND.t309 GND.t308 GND.t309 GND.t105 nfet_03v3 ad=0.672p pd=3.44u as=0 ps=0 w=0.6u l=0.6u
X78 VDD.t222 VDD.t221 VDD.t222 w_23841_n458# pfet_03v3 ad=0.696p pd=3.52u as=0 ps=0 w=0.6u l=0.6u
X79 a_19582_7363.t0 a_25891_n1726.t4 a_28935_n1490# w_23841_n458# pfet_03v3 ad=0.696p pd=3.52u as=0.696p ps=3.52u w=0.6u l=0.6u
X80 GND.t307 GND.t306 GND.t307 GND.t58 nfet_03v3 ad=1.22p pd=5.22u as=0 ps=0 w=2u l=2u
X81 GND.t305 GND.t304 GND.t305 GND.t99 nfet_03v3 ad=0.672p pd=3.44u as=0 ps=0 w=0.6u l=0.6u
X82 a_16964_8348.t0 GND.t28 cap_mim_2f0_m4m5_noshield c_width=42u c_length=10u
X83 a_10460_8092.t9 IBIAS.t2 a_9938_8092.t7 GND.t276 nfet_03v3 ad=1.22p pd=5.22u as=1.22p ps=5.22u w=2u l=2u
X84 VDD.t220 VDD.t219 VDD.t220 w_15348_6286# pfet_03v3 ad=1.3p pd=5.3u as=0 ps=0 w=2u l=2u
X85 a_10778_8092.t25 a_10060_n1528.t24 GND.t371 GND.t5 nfet_03v3 ad=1.22p pd=5.22u as=1.22p ps=5.22u w=2u l=2u
X86 a_9938_8092.t49 a_10060_n1528.t25 GND.t384 GND.t22 nfet_03v3 ad=1.22p pd=5.22u as=1.22p ps=5.22u w=2u l=2u
X87 VDD.t218 VDD.t217 VDD.t218 w_15348_6286# pfet_03v3 ad=1.3p pd=5.3u as=0 ps=0 w=2u l=2u
X88 GND.t303 GND.t302 GND.t303 GND.t163 nfet_03v3 ad=0.672p pd=3.44u as=0 ps=0 w=0.6u l=0.6u
X89 a_10778_8092.t24 a_10060_n1528.t26 GND.t390 GND.t13 nfet_03v3 ad=1.22p pd=5.22u as=1.22p ps=5.22u w=2u l=2u
X90 a_21743_n1960.t13 a_21743_n1960.t12 GND.t382 GND.t41 nfet_03v3 ad=0.672p pd=3.44u as=0.672p ps=3.44u w=0.6u l=0.6u
X91 VDD.t216 VDD.t215 VDD.t216 w_15348_6286# pfet_03v3 ad=1.3p pd=5.3u as=0 ps=0 w=2u l=2u
X92 a_11618_8092.t4 a_10060_n1528.t27 GND.t362 GND.t5 nfet_03v3 ad=1.22p pd=5.22u as=1.22p ps=5.22u w=2u l=2u
X93 VDD.t214 VDD.t213 VDD.t214 w_23841_n458# pfet_03v3 ad=0.696p pd=3.52u as=0 ps=0 w=0.6u l=0.6u
X94 VDD.t212 VDD.t211 VDD.t212 w_15348_6286# pfet_03v3 ad=1.3p pd=5.3u as=0 ps=0 w=2u l=2u
X95 GND.t301 GND.t300 GND.t301 GND.t204 nfet_03v3 ad=1.22p pd=5.22u as=0 ps=0 w=2u l=2u
X96 VDD.t210 VDD.t209 VDD.t210 w_23841_n458# pfet_03v3 ad=0.696p pd=3.52u as=0 ps=0 w=0.6u l=0.6u
X97 VDD.t208 VDD.t207 VDD.t208 w_23841_n458# pfet_03v3 ad=0.696p pd=3.52u as=0 ps=0 w=0.6u l=0.6u
X98 a_21743_n2608.t3 a_21743_n2608.t2 GND.t361 GND.t41 nfet_03v3 ad=0.672p pd=3.44u as=0.672p ps=3.44u w=0.6u l=0.6u
X99 GND.t299 GND.t298 GND.t299 GND.t112 nfet_03v3 ad=1.22p pd=5.22u as=0 ps=0 w=2u l=2u
X100 a_21743_6100.t11 a_21743_6100.t10 GND.t356 GND.t35 nfet_03v3 ad=0.672p pd=3.44u as=0.672p ps=3.44u w=0.6u l=0.6u
X101 a_10778_8092.t23 a_10060_n1528.t28 GND.t23 GND.t22 nfet_03v3 ad=1.22p pd=5.22u as=1.22p ps=5.22u w=2u l=2u
X102 VDD.t270 OUT.t0 a_10460_8092.t1 GND.t394 nfet_03v3 ad=1.22p pd=5.22u as=1.22p ps=5.22u w=2u l=2u
X103 a_9938_8092.t48 a_10060_n1528.t29 GND.t369 GND.t13 nfet_03v3 ad=1.22p pd=5.22u as=1.22p ps=5.22u w=2u l=2u
X104 a_9938_8092.t47 a_10060_n1528.t30 GND.t427 GND.t70 nfet_03v3 ad=1.22p pd=5.22u as=1.22p ps=5.22u w=2u l=2u
X105 a_9938_8092.t46 a_10060_n1528.t31 GND.t388 GND.t11 nfet_03v3 ad=1.22p pd=5.22u as=1.22p ps=5.22u w=2u l=2u
X106 a_28935_n1490# a_25891_n1726.t5 VDD.t267 w_23841_n458# pfet_03v3 ad=0.696p pd=3.52u as=0.696p ps=3.52u w=0.6u l=0.6u
X107 a_10060_n1528.t12 a_10060_n1528.t11 GND.t364 GND.t5 nfet_03v3 ad=1.22p pd=5.22u as=1.22p ps=5.22u w=2u l=2u
X108 a_16434_7468.t19 a_16434_7468.t18 VDD.t269 w_15348_6286# pfet_03v3 ad=1.3p pd=5.3u as=1.3p ps=5.3u w=2u l=2u
X109 GND.t297 GND.t296 GND.t297 GND.t38 nfet_03v3 ad=1.22p pd=5.22u as=0 ps=0 w=2u l=2u
X110 a_21743_6748.t3 a_9248_11691.t2 a_21659_3242.t11 w_23841_n458# pfet_03v3 ad=0.696p pd=3.52u as=0.696p ps=3.52u w=0.6u l=0.6u
X111 a_21659_n106.t26 a_11345_12294.t3 VDD.t30 VDD.t26 pfet_03v3 ad=0.52p pd=2.52u as=1.3p ps=5.3u w=2u l=2u
X112 a_9938_8092.t45 a_10060_n1528.t32 GND.t398 GND.t22 nfet_03v3 ad=1.22p pd=5.22u as=1.22p ps=5.22u w=2u l=2u
X113 GND.t295 GND.t294 GND.t295 GND.t112 nfet_03v3 ad=1.22p pd=5.22u as=0 ps=0 w=2u l=2u
X114 VDD.t206 VDD.t205 VDD.t206 w_15348_6286# pfet_03v3 ad=1.3p pd=5.3u as=0 ps=0 w=2u l=2u
X115 a_19582_6479.t1 OUT.t0 GND.t393 GND.t392 nfet_03v3 ad=0.366p pd=2.42u as=0.366p ps=2.42u w=0.6u l=0.6u
X116 VDD.t204 VDD.t203 VDD.t204 w_23841_n458# pfet_03v3 ad=0.696p pd=3.52u as=0 ps=0 w=0.6u l=0.6u
X117 a_21743_6100.t4 a_16964_8348.t7 a_21659_3242.t6 w_23841_n458# pfet_03v3 ad=0.696p pd=3.52u as=0.696p ps=3.52u w=0.6u l=0.6u
X118 a_9938_8092.t44 a_10060_n1528.t33 GND.t355 GND.t70 nfet_03v3 ad=1.22p pd=5.22u as=1.22p ps=5.22u w=2u l=2u
X119 VDD.t202 VDD.t201 VDD.t202 w_15348_6286# pfet_03v3 ad=1.3p pd=5.3u as=0 ps=0 w=2u l=2u
X120 a_11345_12294.t0 a_10060_n1528.t34 GND.t450 GND.t449 nfet_03v3 ad=0.8p pd=2.8u as=1.22p ps=5.22u w=2u l=2u
X121 GND.t293 GND.t292 GND.t293 GND.t276 nfet_03v3 ad=1.22p pd=5.22u as=0 ps=0 w=2u l=2u
X122 a_10778_8092.t22 a_10060_n1528.t35 GND.t381 GND.t5 nfet_03v3 ad=1.22p pd=5.22u as=1.22p ps=5.22u w=2u l=2u
X123 a_10778_8092.t21 a_10060_n1528.t36 GND.t433 GND.t11 nfet_03v3 ad=1.22p pd=5.22u as=1.22p ps=5.22u w=2u l=2u
X124 a_10778_8092.t20 a_10060_n1528.t37 GND.t435 GND.t22 nfet_03v3 ad=1.22p pd=5.22u as=1.22p ps=5.22u w=2u l=2u
X125 a_21743_n1960.t6 a_9120_14251.t4 a_21659_n106.t15 w_23841_n458# pfet_03v3 ad=0.696p pd=3.52u as=0.696p ps=3.52u w=0.6u l=0.6u
X126 VDD.t29 a_11345_12294.t4 a_21659_n106.t25 VDD.t23 pfet_03v3 ad=0.52p pd=2.52u as=0.52p ps=2.52u w=2u l=2u
X127 VDD.t200 VDD.t199 VDD.t200 w_23841_n458# pfet_03v3 ad=0.696p pd=3.52u as=0 ps=0 w=0.6u l=0.6u
X128 a_10060_n1528.t10 a_10060_n1528.t9 GND.t420 GND.t5 nfet_03v3 ad=1.22p pd=5.22u as=1.22p ps=5.22u w=2u l=2u
X129 a_9938_8092.t43 a_10060_n1528.t38 GND.t452 GND.t22 nfet_03v3 ad=1.22p pd=5.22u as=1.22p ps=5.22u w=2u l=2u
X130 a_21743_6748.t13 a_21743_6748.t12 GND.t445 GND.t35 nfet_03v3 ad=0.672p pd=3.44u as=0.672p ps=3.44u w=0.6u l=0.6u
X131 a_28583_6754# a_25891_6334.t5 VDD.t0 w_23841_n458# pfet_03v3 ad=0.696p pd=3.52u as=0.696p ps=3.52u w=0.6u l=0.6u
X132 GND.t291 GND.t290 GND.t291 GND.t13 nfet_03v3 ad=1.22p pd=5.22u as=0 ps=0 w=2u l=2u
X133 GND.t289 GND.t288 GND.t289 GND.t63 nfet_03v3 ad=0.672p pd=3.44u as=0 ps=0 w=0.6u l=0.6u
X134 a_16434_8348.t10 a_16434_7468.t23 VDD.t276 w_15348_6286# pfet_03v3 ad=1.3p pd=5.3u as=1.3p ps=5.3u w=2u l=2u
X135 GND.t287 GND.t286 GND.t287 GND.t7 nfet_03v3 ad=0.672p pd=3.44u as=0 ps=0 w=0.6u l=0.6u
X136 VDD.t264 a_19582_7363.t3 a_19718_7047# VDD.t263 pfet_03v3 ad=0.39p pd=2.5u as=0.39p ps=2.5u w=0.6u l=0.6u
X137 a_9938_8092.t42 a_10060_n1528.t39 GND.t431 GND.t86 nfet_03v3 ad=1.22p pd=5.22u as=1.22p ps=5.22u w=2u l=2u
X138 a_21659_n106.t24 a_11345_12294.t3 VDD.t28 VDD.t19 pfet_03v3 ad=0.52p pd=2.52u as=0.52p ps=2.52u w=2u l=2u
X139 a_21659_n106.t23 a_11345_12294.t3 VDD.t27 VDD.t26 pfet_03v3 ad=0.52p pd=2.52u as=1.3p ps=5.3u w=2u l=2u
X140 GND.t285 GND.t284 GND.t285 GND.t112 nfet_03v3 ad=1.22p pd=5.22u as=0 ps=0 w=2u l=2u
X141 VDD.t198 VDD.t197 VDD.t198 w_23841_n458# pfet_03v3 ad=0.696p pd=3.52u as=0 ps=0 w=0.6u l=0.6u
X142 VDD.t196 VDD.t195 VDD.t196 w_23841_n458# pfet_03v3 ad=0.696p pd=3.52u as=0 ps=0 w=0.6u l=0.6u
X143 GND.t283 GND.t282 GND.t283 GND.t86 nfet_03v3 ad=1.22p pd=5.22u as=0 ps=0 w=2u l=2u
X144 GND.t281 GND.t280 GND.t281 GND.t112 nfet_03v3 ad=1.22p pd=5.22u as=0 ps=0 w=2u l=2u
X145 GND.t279 GND.t278 GND.t279 GND.t152 nfet_03v3 ad=0.672p pd=3.44u as=0 ps=0 w=0.6u l=0.6u
X146 a_9938_8092.t41 a_10060_n1528.t40 GND.t444 GND.t70 nfet_03v3 ad=1.22p pd=5.22u as=1.22p ps=5.22u w=2u l=2u
X147 a_21743_6748.t0 a_9248_11691.t3 a_21659_3242.t8 w_23841_n458# pfet_03v3 ad=0.696p pd=3.52u as=0.696p ps=3.52u w=0.6u l=0.6u
X148 GND.t277 GND.t275 GND.t277 GND.t276 nfet_03v3 ad=1.22p pd=5.22u as=0 ps=0 w=2u l=2u
X149 GND.t274 GND.t273 GND.t274 GND.t112 nfet_03v3 ad=1.22p pd=5.22u as=0 ps=0 w=2u l=2u
X150 a_10778_8092.t19 a_10060_n1528.t41 GND.t21 GND.t11 nfet_03v3 ad=1.22p pd=5.22u as=1.22p ps=5.22u w=2u l=2u
X151 GND.t272 GND.t271 GND.t272 GND.t144 nfet_03v3 ad=0.672p pd=3.44u as=0 ps=0 w=0.6u l=0.6u
X152 VDD.t25 a_11345_12294.t3 a_21659_n106.t22 VDD.t23 pfet_03v3 ad=0.52p pd=2.52u as=0.52p ps=2.52u w=2u l=2u
X153 a_21743_6100.t7 a_16964_8348.t8 a_21659_3242.t5 w_23841_n458# pfet_03v3 ad=0.696p pd=3.52u as=0.696p ps=3.52u w=0.6u l=0.6u
X154 VDD.t194 VDD.t193 VDD.t194 w_23841_n458# pfet_03v3 ad=0.696p pd=3.52u as=0 ps=0 w=0.6u l=0.6u
X155 a_10778_8092.t18 a_10060_n1528.t42 GND.t399 GND.t175 nfet_03v3 ad=1.22p pd=5.22u as=1.22p ps=5.22u w=2u l=2u
X156 GND.t270 GND.t269 GND.t270 GND.t70 nfet_03v3 ad=1.22p pd=5.22u as=0 ps=0 w=2u l=2u
X157 GND.t268 GND.t267 GND.t268 GND.t55 nfet_03v3 ad=0.672p pd=3.44u as=0 ps=0 w=0.6u l=0.6u
X158 VDD.t192 VDD.t191 VDD.t192 w_15348_6286# pfet_03v3 ad=1.3p pd=5.3u as=0 ps=0 w=2u l=2u
X159 a_9938_8092.t40 a_10060_n1528.t43 GND.t415 GND.t172 nfet_03v3 ad=1.22p pd=5.22u as=1.22p ps=5.22u w=2u l=2u
X160 VDD.t24 a_11345_12294.t4 a_21659_n106.t21 VDD.t23 pfet_03v3 ad=0.52p pd=2.52u as=0.52p ps=2.52u w=2u l=2u
X161 a_25891_6334.t3 a_25891_6334.t2 a_28583_6754# w_23841_n458# pfet_03v3 ad=0.696p pd=3.52u as=0.696p ps=3.52u w=0.6u l=0.6u
X162 a_9938_8092.t39 a_10060_n1528.t44 GND.t12 GND.t11 nfet_03v3 ad=1.22p pd=5.22u as=1.22p ps=5.22u w=2u l=2u
X163 a_21743_6748.t1 a_9248_11691.t4 a_21659_3242.t9 w_23841_n458# pfet_03v3 ad=0.696p pd=3.52u as=0.696p ps=3.52u w=0.6u l=0.6u
X164 VDD.t190 VDD.t189 VDD.t190 w_23841_n458# pfet_03v3 ad=0.696p pd=3.52u as=0 ps=0 w=0.6u l=0.6u
X165 a_9938_8092.t38 a_10060_n1528.t45 GND.t397 GND.t204 nfet_03v3 ad=1.22p pd=5.22u as=1.22p ps=5.22u w=2u l=2u
X166 GND.t19 GND.t20 GND.t0 ppolyf_u_1k r_width=1u r_length=98u
X167 VDD.t188 VDD.t187 VDD.t188 w_23841_n458# pfet_03v3 ad=0.696p pd=3.52u as=0 ps=0 w=0.6u l=0.6u
X168 GND.t266 GND.t265 GND.t266 GND.t144 nfet_03v3 ad=0.672p pd=3.44u as=0 ps=0 w=0.6u l=0.6u
X169 a_21743_n2608.t8 a_16964_8348.t9 a_21659_n106.t2 w_23841_n458# pfet_03v3 ad=0.696p pd=3.52u as=0.696p ps=3.52u w=0.6u l=0.6u
X170 VDD.t186 VDD.t185 VDD.t186 w_15348_6286# pfet_03v3 ad=1.3p pd=5.3u as=0 ps=0 w=2u l=2u
X171 GND.t264 GND.t263 GND.t264 GND.t50 nfet_03v3 ad=1.22p pd=5.22u as=0 ps=0 w=2u l=2u
X172 a_21743_n1960.t5 a_9120_14251.t5 a_21659_n106.t14 w_23841_n458# pfet_03v3 ad=0.696p pd=3.52u as=0.696p ps=3.52u w=0.6u l=0.6u
X173 VDD.t184 VDD.t183 VDD.t184 w_15348_6286# pfet_03v3 ad=1.3p pd=5.3u as=0 ps=0 w=2u l=2u
X174 a_11618_8092.t3 a_10060_n1528.t46 GND.t348 GND.t175 nfet_03v3 ad=1.22p pd=5.22u as=1.22p ps=5.22u w=2u l=2u
X175 a_9938_8092.t37 a_10060_n1528.t47 GND.t377 GND.t172 nfet_03v3 ad=1.22p pd=5.22u as=1.22p ps=5.22u w=2u l=2u
X176 VDD.t182 VDD.t181 VDD.t182 w_15348_6286# pfet_03v3 ad=1.3p pd=5.3u as=0 ps=0 w=2u l=2u
X177 a_16434_7468.t17 a_16434_7468.t16 VDD.t275 w_15348_6286# pfet_03v3 ad=1.3p pd=5.3u as=1.3p ps=5.3u w=2u l=2u
X178 a_21743_n1960.t4 a_9120_14251.t6 a_21659_n106.t9 w_23841_n458# pfet_03v3 ad=0.696p pd=3.52u as=0.696p ps=3.52u w=0.6u l=0.6u
X179 VDD.t180 VDD.t179 VDD.t180 w_23841_n458# pfet_03v3 ad=0.696p pd=3.52u as=0 ps=0 w=0.6u l=0.6u
X180 a_10778_8092.t17 a_10060_n1528.t48 GND.t402 GND.t5 nfet_03v3 ad=1.22p pd=5.22u as=1.22p ps=5.22u w=2u l=2u
X181 VDD.t178 VDD.t177 VDD.t178 w_23841_n458# pfet_03v3 ad=0.696p pd=3.52u as=0 ps=0 w=0.6u l=0.6u
X182 a_11300_8092.t3 IBIAS.t3 a_10778_8092.t3 GND.t223 nfet_03v3 ad=1.22p pd=5.22u as=1.22p ps=5.22u w=2u l=2u
X183 VDD.t176 VDD.t175 VDD.t176 w_15348_6286# pfet_03v3 ad=1.3p pd=5.3u as=0 ps=0 w=2u l=2u
X184 a_21659_n106.t20 a_11345_12294.t3 VDD.t22 VDD.t19 pfet_03v3 ad=0.52p pd=2.52u as=0.52p ps=2.52u w=2u l=2u
X185 a_21743_6748.t2 a_9248_11691.t5 a_21659_3242.t10 w_23841_n458# pfet_03v3 ad=0.696p pd=3.52u as=0.696p ps=3.52u w=0.6u l=0.6u
X186 a_10778_8092.t16 a_10060_n1528.t49 GND.t359 GND.t22 nfet_03v3 ad=1.22p pd=5.22u as=1.22p ps=5.22u w=2u l=2u
X187 GND.t262 GND.t261 GND.t262 GND.t152 nfet_03v3 ad=0.672p pd=3.44u as=0 ps=0 w=0.6u l=0.6u
X188 VDD.t174 VDD.t173 VDD.t174 w_15348_6286# pfet_03v3 ad=1.3p pd=5.3u as=0 ps=0 w=2u l=2u
X189 a_10778_8092.t15 a_10060_n1528.t50 GND.t387 GND.t5 nfet_03v3 ad=1.22p pd=5.22u as=1.22p ps=5.22u w=2u l=2u
X190 a_10778_8092.t14 a_10060_n1528.t51 GND.t404 GND.t96 nfet_03v3 ad=1.22p pd=5.22u as=1.22p ps=5.22u w=2u l=2u
X191 a_10460_8092.t8 IBIAS.t4 a_9938_8092.t5 GND.t276 nfet_03v3 ad=1.22p pd=5.22u as=1.22p ps=5.22u w=2u l=2u
X192 a_9938_8092.t36 a_10060_n1528.t52 GND.t448 GND.t149 nfet_03v3 ad=1.22p pd=5.22u as=1.22p ps=5.22u w=2u l=2u
X193 a_21743_6100.t5 a_16964_8348.t10 a_21659_3242.t4 w_23841_n458# pfet_03v3 ad=0.696p pd=3.52u as=0.696p ps=3.52u w=0.6u l=0.6u
X194 VDD.t172 VDD.t171 VDD.t172 w_23841_n458# pfet_03v3 ad=0.696p pd=3.52u as=0 ps=0 w=0.6u l=0.6u
X195 GND.t260 GND.t259 GND.t260 GND.t9 nfet_03v3 ad=0.672p pd=3.44u as=0 ps=0 w=0.6u l=0.6u
X196 GND.t258 GND.t257 GND.t258 GND.t5 nfet_03v3 ad=1.22p pd=5.22u as=0 ps=0 w=2u l=2u
X197 a_9938_8092.t35 a_10060_n1528.t53 GND.t396 GND.t22 nfet_03v3 ad=1.22p pd=5.22u as=1.22p ps=5.22u w=2u l=2u
X198 GND.t256 GND.t255 GND.t256 GND.t32 nfet_03v3 ad=0.672p pd=3.44u as=0 ps=0 w=0.6u l=0.6u
X199 VDD.t21 a_11345_12294.t5 a_21659_n106.t19 VDD.t16 pfet_03v3 ad=1.3p pd=5.3u as=0.52p ps=2.52u w=2u l=2u
X200 GND.t254 GND.t253 GND.t254 GND.t79 nfet_03v3 ad=0.672p pd=3.44u as=0 ps=0 w=0.6u l=0.6u
X201 VDD.t170 VDD.t169 VDD.t170 w_15348_6286# pfet_03v3 ad=1.3p pd=5.3u as=0 ps=0 w=2u l=2u
X202 GND.t252 GND.t251 GND.t252 GND.t76 nfet_03v3 ad=0.672p pd=3.44u as=0 ps=0 w=0.6u l=0.6u
X203 GND.t250 GND.t249 GND.t250 GND.t17 nfet_03v3 ad=0.672p pd=3.44u as=0 ps=0 w=0.6u l=0.6u
X204 a_16434_7468.t15 a_16434_7468.t14 VDD.t274 w_15348_6286# pfet_03v3 ad=1.3p pd=5.3u as=1.3p ps=5.3u w=2u l=2u
X205 VDD.t168 VDD.t167 VDD.t168 w_15348_6286# pfet_03v3 ad=1.3p pd=5.3u as=0 ps=0 w=2u l=2u
X206 GND.t248 GND.t247 GND.t248 GND.t135 nfet_03v3 ad=0.672p pd=3.44u as=0 ps=0 w=0.6u l=0.6u
X207 GND.t246 GND.t245 GND.t246 GND.t22 nfet_03v3 ad=1.22p pd=5.22u as=0 ps=0 w=2u l=2u
X208 a_28583_n2146# a_25891_n1726.t6 VDD.t268 w_23841_n458# pfet_03v3 ad=0.696p pd=3.52u as=0.696p ps=3.52u w=0.6u l=0.6u
X209 GND.t244 GND.t243 GND.t244 GND.t112 nfet_03v3 ad=1.22p pd=5.22u as=0 ps=0 w=2u l=2u
X210 a_21743_n2608.t7 a_16964_8348.t11 a_21659_n106.t4 w_23841_n458# pfet_03v3 ad=0.696p pd=3.52u as=0.696p ps=3.52u w=0.6u l=0.6u
X211 a_10778_8092.t13 a_10060_n1528.t54 GND.t409 GND.t175 nfet_03v3 ad=1.22p pd=5.22u as=1.22p ps=5.22u w=2u l=2u
X212 a_11618_8092.t2 a_10060_n1528.t55 GND.t423 GND.t96 nfet_03v3 ad=1.22p pd=5.22u as=1.22p ps=5.22u w=2u l=2u
X213 GND.t242 GND.t241 GND.t242 GND.t105 nfet_03v3 ad=0.672p pd=3.44u as=0 ps=0 w=0.6u l=0.6u
X214 GND.t240 GND.t239 GND.t240 GND.t13 nfet_03v3 ad=1.22p pd=5.22u as=0 ps=0 w=2u l=2u
X215 a_9938_8092.t34 a_10060_n1528.t56 GND.t391 GND.t172 nfet_03v3 ad=1.22p pd=5.22u as=1.22p ps=5.22u w=2u l=2u
X216 a_10778_8092.t12 a_10060_n1528.t57 GND.t424 GND.t149 nfet_03v3 ad=1.22p pd=5.22u as=1.22p ps=5.22u w=2u l=2u
X217 a_21743_n1960.t3 a_9120_14251.t7 a_21659_n106.t8 w_23841_n458# pfet_03v3 ad=0.696p pd=3.52u as=0.696p ps=3.52u w=0.6u l=0.6u
X218 a_9938_8092.t33 a_10060_n1528.t58 GND.t400 GND.t70 nfet_03v3 ad=1.22p pd=5.22u as=1.22p ps=5.22u w=2u l=2u
X219 GND.t238 GND.t237 GND.t238 GND.t102 nfet_03v3 ad=0.672p pd=3.44u as=0 ps=0 w=0.6u l=0.6u
X220 a_10060_n1528.t8 a_10060_n1528.t7 GND.t434 GND.t96 nfet_03v3 ad=1.22p pd=5.22u as=1.22p ps=5.22u w=2u l=2u
X221 a_10778_8092.t11 a_10060_n1528.t59 GND.t410 GND.t11 nfet_03v3 ad=1.22p pd=5.22u as=1.22p ps=5.22u w=2u l=2u
X222 a_10060_n1528.t6 a_10060_n1528.t5 GND.t339 GND.t175 nfet_03v3 ad=1.22p pd=5.22u as=1.22p ps=5.22u w=2u l=2u
X223 a_21659_n106.t18 a_11345_12294.t3 VDD.t20 VDD.t19 pfet_03v3 ad=0.52p pd=2.52u as=0.52p ps=2.52u w=2u l=2u
X224 GND.t236 GND.t235 GND.t236 GND.t99 nfet_03v3 ad=0.672p pd=3.44u as=0 ps=0 w=0.6u l=0.6u
X225 a_21743_n2608.t6 a_16964_8348.t12 a_21659_n106.t0 w_23841_n458# pfet_03v3 ad=0.696p pd=3.52u as=0.696p ps=3.52u w=0.6u l=0.6u
X226 GND.t234 GND.t233 GND.t234 GND.t105 nfet_03v3 ad=0.672p pd=3.44u as=0 ps=0 w=0.6u l=0.6u
X227 GND.t232 GND.t231 GND.t232 GND.t15 nfet_03v3 ad=0.672p pd=3.44u as=0 ps=0 w=0.6u l=0.6u
X228 a_9938_8092.t32 a_10060_n1528.t60 GND.t373 GND.t172 nfet_03v3 ad=1.22p pd=5.22u as=1.22p ps=5.22u w=2u l=2u
X229 a_21743_n2608.t5 a_16964_8348.t13 a_21659_n106.t3 w_23841_n458# pfet_03v3 ad=0.696p pd=3.52u as=0.696p ps=3.52u w=0.6u l=0.6u
X230 GND.t230 GND.t229 GND.t230 GND.t5 nfet_03v3 ad=1.22p pd=5.22u as=0 ps=0 w=2u l=2u
X231 GND.t1 GND.t2 GND.t0 ppolyf_u_1k r_width=1u r_length=98u
X232 a_21743_6748.t7 a_9248_11691.t6 a_21659_3242.t25 w_23841_n458# pfet_03v3 ad=0.696p pd=3.52u as=0.696p ps=3.52u w=0.6u l=0.6u
X233 a_9938_8092.t31 a_10060_n1528.t61 GND.t376 GND.t149 nfet_03v3 ad=1.22p pd=5.22u as=1.22p ps=5.22u w=2u l=2u
X234 GND.t228 GND.t227 GND.t228 GND.t22 nfet_03v3 ad=1.22p pd=5.22u as=0 ps=0 w=2u l=2u
X235 a_16434_7468.t13 a_16434_7468.t12 VDD.t282 w_15348_6286# pfet_03v3 ad=1.3p pd=5.3u as=1.3p ps=5.3u w=2u l=2u
X236 VDD.t18 a_11345_12294.t3 a_21659_n106.t17 VDD.t16 pfet_03v3 ad=1.3p pd=5.3u as=0.52p ps=2.52u w=2u l=2u
X237 a_9120_15571# a_28848_15131# GND.t0 ppolyf_u_1k r_width=1u r_length=98u
X238 a_16964_8348.t1 a_19582_6479.t3 a_10460_8092.t0 GND.t379 nfet_03v3 ad=1.22p pd=5.22u as=1.22p ps=5.22u w=2u l=2u
X239 VDD.t166 VDD.t165 VDD.t166 w_23841_n458# pfet_03v3 ad=0.696p pd=3.52u as=0 ps=0 w=0.6u l=0.6u
X240 GND.t226 GND.t225 GND.t226 GND.t112 nfet_03v3 ad=1.22p pd=5.22u as=0 ps=0 w=2u l=2u
X241 GND.t224 GND.t222 GND.t224 GND.t223 nfet_03v3 ad=1.22p pd=5.22u as=0 ps=0 w=2u l=2u
X242 a_11618_8092.t1 a_10060_n1528.t62 GND.t414 GND.t96 nfet_03v3 ad=1.22p pd=5.22u as=1.22p ps=5.22u w=2u l=2u
X243 GND.t221 GND.t220 GND.t221 GND.t89 nfet_03v3 ad=0.672p pd=3.44u as=0 ps=0 w=0.6u l=0.6u
X244 a_10778_8092.t10 a_10060_n1528.t63 GND.t413 GND.t96 nfet_03v3 ad=1.22p pd=5.22u as=1.22p ps=5.22u w=2u l=2u
X245 VDD.t164 VDD.t163 VDD.t164 w_15348_6286# pfet_03v3 ad=1.3p pd=5.3u as=0 ps=0 w=2u l=2u
X246 GND.t219 GND.t218 GND.t219 GND.t112 nfet_03v3 ad=1.22p pd=5.22u as=0 ps=0 w=2u l=2u
X247 a_9938_8092.t30 a_10060_n1528.t64 GND.t425 GND.t149 nfet_03v3 ad=1.22p pd=5.22u as=1.22p ps=5.22u w=2u l=2u
X248 a_16434_7468.t11 a_16434_7468.t10 VDD.t273 w_15348_6286# pfet_03v3 ad=1.3p pd=5.3u as=1.3p ps=5.3u w=2u l=2u
X249 VDD.t17 a_11345_12294.t3 a_21659_n106.t16 VDD.t16 pfet_03v3 ad=1.3p pd=5.3u as=0.52p ps=2.52u w=2u l=2u
X250 GND.t217 GND.t216 GND.t217 GND.t112 nfet_03v3 ad=1.22p pd=5.22u as=0 ps=0 w=2u l=2u
X251 a_9938_8092.t29 a_10060_n1528.t65 GND.t389 GND.t204 nfet_03v3 ad=1.22p pd=5.22u as=1.22p ps=5.22u w=2u l=2u
X252 GND.t215 GND.t214 GND.t215 GND.t73 nfet_03v3 ad=1.22p pd=5.22u as=0 ps=0 w=2u l=2u
X253 GND.t213 GND.t212 GND.t213 GND.t73 nfet_03v3 ad=1.22p pd=5.22u as=0 ps=0 w=2u l=2u
X254 a_10060_n1528.t4 a_10060_n1528.t3 GND.t401 GND.t96 nfet_03v3 ad=1.22p pd=5.22u as=1.22p ps=5.22u w=2u l=2u
X255 a_16434_8348.t9 a_16434_7468.t24 VDD.t277 w_15348_6286# pfet_03v3 ad=1.3p pd=5.3u as=1.3p ps=5.3u w=2u l=2u
X256 a_16434_8348.t8 a_16434_7468.t25 VDD.t278 w_15348_6286# pfet_03v3 ad=1.3p pd=5.3u as=1.3p ps=5.3u w=2u l=2u
X257 a_9938_8092.t28 a_10060_n1528.t66 GND.t451 GND.t149 nfet_03v3 ad=1.22p pd=5.22u as=1.22p ps=5.22u w=2u l=2u
X258 GND.t211 GND.t210 GND.t211 GND.t70 nfet_03v3 ad=1.22p pd=5.22u as=0 ps=0 w=2u l=2u
X259 a_11345_12294.t0 a_10060_n1528.t67 GND.t408 GND.t407 nfet_03v3 ad=1.22p pd=5.22u as=0.8p ps=2.8u w=2u l=2u
X260 a_21659_3242.t18 a_11345_12294.t2 VDD.t15 VDD.t10 pfet_03v3 ad=0.52p pd=2.52u as=1.3p ps=5.3u w=2u l=2u
X261 VDD.t162 VDD.t161 VDD.t162 w_23841_n458# pfet_03v3 ad=0.696p pd=3.52u as=0 ps=0 w=0.6u l=0.6u
X262 VDD.t160 VDD.t159 VDD.t160 w_23841_n458# pfet_03v3 ad=0.696p pd=3.52u as=0 ps=0 w=0.6u l=0.6u
X263 GND.t209 GND.t208 GND.t209 GND.t11 nfet_03v3 ad=1.22p pd=5.22u as=0 ps=0 w=2u l=2u
X264 GND.t207 GND.t206 GND.t207 GND.t99 nfet_03v3 ad=0.672p pd=3.44u as=0 ps=0 w=0.6u l=0.6u
X265 GND.t350 a_19582_7363.t4 a_19582_6479.t2 GND.t349 nfet_03v3 ad=0.366p pd=2.42u as=0.366p ps=2.42u w=0.6u l=0.6u
X266 VDD.t158 VDD.t157 VDD.t158 w_15348_6286# pfet_03v3 ad=1.3p pd=5.3u as=0 ps=0 w=2u l=2u
X267 GND.t205 GND.t203 GND.t205 GND.t204 nfet_03v3 ad=1.22p pd=5.22u as=0 ps=0 w=2u l=2u
X268 VDD.t156 VDD.t155 VDD.t156 w_15348_6286# pfet_03v3 ad=1.3p pd=5.3u as=0 ps=0 w=2u l=2u
X269 VDD.t154 VDD.t153 VDD.t154 w_23841_n458# pfet_03v3 ad=0.696p pd=3.52u as=0 ps=0 w=0.6u l=0.6u
X270 VDD.t14 a_11345_12294.t2 a_21659_3242.t21 VDD.t8 pfet_03v3 ad=0.52p pd=2.52u as=0.52p ps=2.52u w=2u l=2u
X271 GND.t418 a_10060_n1528.t68 a_11345_12294.t0 GND.t417 nfet_03v3 ad=0.8p pd=2.8u as=0.8p ps=2.8u w=2u l=2u
X272 a_16434_8348.t7 a_16434_7468.t26 VDD.t288 w_15348_6286# pfet_03v3 ad=1.3p pd=5.3u as=1.3p ps=5.3u w=2u l=2u
X273 GND.t202 GND.t201 GND.t202 GND.t73 nfet_03v3 ad=1.22p pd=5.22u as=0 ps=0 w=2u l=2u
X274 a_10460_8092.t7 IBIAS.t5 a_9938_8092.t6 GND.t223 nfet_03v3 ad=1.22p pd=5.22u as=1.22p ps=5.22u w=2u l=2u
X275 a_10778_8092.t9 a_10060_n1528.t69 GND.t370 GND.t175 nfet_03v3 ad=1.22p pd=5.22u as=1.22p ps=5.22u w=2u l=2u
X276 GND.t200 GND.t199 GND.t200 GND.t58 nfet_03v3 ad=1.22p pd=5.22u as=0 ps=0 w=2u l=2u
X277 a_9938_8092.t27 a_10060_n1528.t70 GND.t340 GND.t172 nfet_03v3 ad=1.22p pd=5.22u as=1.22p ps=5.22u w=2u l=2u
X278 GND.t198 GND.t197 GND.t198 GND.t41 nfet_03v3 ad=0.672p pd=3.44u as=0 ps=0 w=0.6u l=0.6u
X279 a_9938_8092.t26 a_10060_n1528.t71 GND.t353 GND.t13 nfet_03v3 ad=1.22p pd=5.22u as=1.22p ps=5.22u w=2u l=2u
X280 VDD.t152 VDD.t151 VDD.t152 w_15348_6286# pfet_03v3 ad=1.3p pd=5.3u as=0 ps=0 w=2u l=2u
X281 a_9938_8092.t25 a_10060_n1528.t72 GND.t386 GND.t86 nfet_03v3 ad=1.22p pd=5.22u as=1.22p ps=5.22u w=2u l=2u
X282 a_10778_8092.t8 a_10060_n1528.t73 GND.t395 GND.t11 nfet_03v3 ad=1.22p pd=5.22u as=1.22p ps=5.22u w=2u l=2u
X283 VDD.t150 VDD.t149 VDD.t150 w_23841_n458# pfet_03v3 ad=0.696p pd=3.52u as=0 ps=0 w=0.6u l=0.6u
X284 IBIAS.t1 IBIAS.t0 a_10060_n1528.t0 GND.t276 nfet_03v3 ad=1.22p pd=5.22u as=1.22p ps=5.22u w=2u l=2u
X285 GND.t196 GND.t195 GND.t196 GND.t35 nfet_03v3 ad=0.672p pd=3.44u as=0 ps=0 w=0.6u l=0.6u