* NGSPICE file created from SAR_Asynchronous_top.ext - technology: gf180mcuD

.subckt SAR_Asynchronous_top CK11 CK9 CK8 CK7 CK6 CK5 CK3 CK2 CK1 Valid D clks Reset
+ VCM Set out_10 out_1 out_9 out_2 out_8 out_3 out_7 out_4 out_6 out_5 D_C_11 D_C_10
+ D_C_1 D_C_9 D_C_2 D_C_8 D_C_3 D_C_7 D_C_4 D_C_6 D_C_5 VDDD VSSD Bit_10 Bit_0 Bit_9
+ Bit_1 Bit_8 Bit_2 Bit_7 Bit_3 Bit_6 Bit_4 Bit_5 CK4
X0 a_39352_10796.t0 a_37288_11028.t2 a_41964_10796.t0 VDDD.t31 pfet_03v3 ad=2.535p pd=9.1u as=2.535p ps=9.1u w=3.9u l=0.28u
X1 SAR_Asynchronous_Logic_integration_0/SAR_Asynchronous_Logic_10/D_reset_FF_0.nQ SAR_Asynchronous_Logic_integration_0/SAR_Asynchronous_Logic_10/D_reset_FF_0.Q.t3 VDDD.t21 VDDD.t20 pfet_03v3 ad=2.535p pd=9.1u as=2.535p ps=9.1u w=3.9u l=0.28u
X2 SAR_Asynchronous_Logic_integration_0/SAR_Asynchronous_Logic_7/D_reset_FF_0.Q.t1 a_47520_n7312.t4 a_48644_n6052# VDDD.t377 pfet_03v3 ad=2.535p pd=9.1u as=2.535p ps=9.1u w=3.9u l=0.28u
X3 a_n60504_11030.t1 CK10.t5 VDDD.t6 VDDD.t5 pfet_03v3 ad=2.535p pd=9.1u as=2.535p ps=9.1u w=3.9u l=0.28u
X4 Bit_1.t2 a_n29878_n2740.t2 VCM.t8 VSSD.t269 nfet_03v3 ad=0.9516p pd=4.34u as=0.9516p ps=4.34u w=1.56u l=0.28u
X5 VSSD.t205 a_n18580_10796# SAR_Asynchronous_Logic_integration_0/SAR_Asynchronous_Logic_1/D_reset_FF_1.Q.t2 VSSD.t204 nfet_03v3 ad=0.9516p pd=4.34u as=0.9516p ps=4.34u w=1.56u l=0.28u
X6 a_11088_n1944# a_8090_n1944# SAR_Asynchronous_Logic_integration_0/SAR_Asynchronous_Logic_10/D_reset_FF_1.Q.t3 VDDD.t112 pfet_03v3 ad=2.535p pd=9.1u as=2.535p ps=9.1u w=3.9u l=0.28u
X7 a_n28504_11030.t1 CK9.t5 VDDD.t448 VDDD.t447 pfet_03v3 ad=2.535p pd=9.1u as=2.535p ps=9.1u w=3.9u l=0.28u
X8 a_40336_12056# Set.t0 VDDD.t639 VDDD.t638 pfet_03v3 ad=2.535p pd=9.1u as=2.535p ps=9.1u w=3.9u l=0.28u
X9 a_14304_n3204.t0 a_8208_n2082.t2 a_14118_n1944.t0 VSSD.t511 nfet_03v3 ad=0.9516p pd=4.34u as=0.9516p ps=4.34u w=1.56u l=0.28u
X10 VSSD.t736 a_76828_n3204.t5 a_78304_n3204.t4 VSSD.t735 nfet_03v3 ad=0.9516p pd=4.34u as=0.9516p ps=4.34u w=1.56u l=0.28u
X11 SAR_Asynchronous_Logic_integration_0/SAR_Asynchronous_Logic_4/D_reset_FF_0.nQ SAR_Asynchronous_Logic_integration_0/SAR_Asynchronous_Logic_4/D_reset_FF_0.Q.t3 VSSD.t273 VSSD.t272 nfet_03v3 ad=0.9516p pd=4.34u as=0.9516p ps=4.34u w=1.56u l=0.28u
X12 a_20240_12186.t0 a_4388_11030.t2 VDDD.t410 VDDD.t409 pfet_03v3 ad=2.535p pd=9.1u as=2.535p ps=9.1u w=3.9u l=1.1u
X13 VSSD.t489 a_66122_n1986.t2 a_72208_n2836.t0 VSSD.t488 nfet_03v3 ad=0.9516p pd=4.34u as=0.9516p ps=4.34u w=1.56u l=0.28u
X14 SAR_Asynchronous_Logic_integration_0/SAR_Asynchronous_Logic_0/D_reset_FF_1.nQ SAR_Asynchronous_Logic_integration_0/SAR_Asynchronous_Logic_0/D_reset_FF_1.Q.t9 VSSD.t501 VSSD.t500 nfet_03v3 ad=0.9516p pd=4.34u as=0.9516p ps=4.34u w=1.56u l=0.28u
X15 VSSD.t497 a_44828_n3204.t5 a_46304_n3204.t1 VSSD.t496 nfet_03v3 ad=0.9516p pd=4.34u as=0.9516p ps=4.34u w=1.56u l=0.28u
X16 a_n15944_n28246# a_n23256_n28014.t2 a_n21028_n28246.t0 VSSD.t726 nfet_03v3 ad=0.9516p pd=4.34u as=0.9516p ps=4.34u w=1.56u l=0.28u
X17 a_n83796_6688.t2 Reset.t0 VSSD.t338 VSSD.t337 nfet_03v3 ad=0.9516p pd=4.34u as=0.9516p ps=4.34u w=1.56u l=0.28u
X18 a_79624_n28014# CK1.t3 VSSD.t437 VSSD.t436 nfet_03v3 ad=0.9516p pd=4.34u as=0.9516p ps=4.34u w=1.56u l=0.28u
X19 a_n6028_n28246.t4 a_n7012_n28246.t4 a_n6028_n26986# VDDD.t777 pfet_03v3 ad=2.535p pd=9.1u as=2.535p ps=9.1u w=3.9u l=0.28u
X20 VDDD.t641 Set.t1 a_81296_n1944# VDDD.t640 pfet_03v3 ad=2.535p pd=9.1u as=2.535p ps=9.1u w=3.9u l=0.28u
X21 VSSD.t754 Set.t2 a_31820_n28246.t0 VSSD.t753 nfet_03v3 ad=0.9516p pd=4.34u as=0.9516p ps=4.34u w=1.56u l=0.28u
X22 a_180_n26986# clks.t0 VDDD.t486 VDDD.t485 pfet_03v3 ad=2.535p pd=9.1u as=2.535p ps=9.1u w=3.9u l=0.28u
X23 a_n79816_10796.t3 Set.t3 a_n79816_12056# VDDD.t642 pfet_03v3 ad=2.535p pd=9.1u as=2.535p ps=9.1u w=3.9u l=0.28u
X24 a_n55664_12056# Set.t4 VDDD.t644 VDDD.t643 pfet_03v3 ad=2.535p pd=9.1u as=2.535p ps=9.1u w=3.9u l=0.28u
X25 SAR_Asynchronous_Logic_integration_0/SAR_Asynchronous_Logic_6/D_reset_FF_1.Q.t2 a_67496_11030.t2 a_84438_6650# VDDD.t442 pfet_03v3 ad=2.535p pd=9.1u as=2.535p ps=9.1u w=3.9u l=0.28u
X26 a_n43562_6650# a_n60504_11030.t2 VSSD.t722 VSSD.t721 nfet_03v3 ad=0.9516p pd=4.34u as=0.9516p ps=4.34u w=1.56u l=1.1u
X27 VCM.t15 a_3496_11030.t2 Bit_7.t3 VSSD.t532 nfet_03v3 ad=0.9516p pd=4.34u as=0.9516p ps=4.34u w=1.56u l=0.28u
X28 VDDD.t446 a_35398_n1950.t3 Bit_3.t2 VDDD.t445 pfet_03v3 ad=2.535p pd=9.1u as=2.535p ps=9.1u w=3.9u l=1.1u
X29 VDDD.t646 Set.t5 a_49296_n1944# VDDD.t645 pfet_03v3 ad=2.535p pd=9.1u as=2.535p ps=9.1u w=3.9u l=0.28u
X30 VDDD.t315 Reset.t1 a_40988_7948# VDDD.t314 pfet_03v3 ad=2.535p pd=9.1u as=2.535p ps=9.1u w=3.9u l=0.28u
X31 a_n53272_6688.t1 a_n57892_7810.t2 a_n58010_7948.t1 VSSD.t573 nfet_03v3 ad=0.9516p pd=4.34u as=0.9516p ps=4.34u w=1.56u l=0.28u
X32 a_n56648_10796.t3 a_n58712_11028.t2 a_n54036_10796.t4 VDDD.t655 pfet_03v3 ad=2.535p pd=9.1u as=2.535p ps=9.1u w=3.9u l=0.28u
X33 a_38176_6688.t0 a_38108_7810.t2 a_37990_7948.t1 VDDD.t794 pfet_03v3 ad=2.535p pd=9.1u as=2.535p ps=9.1u w=3.9u l=0.28u
X34 a_21744_n28014.t0 a_20924_n28014.t2 VSSD.t921 VSSD.t920 nfet_03v3 ad=0.9516p pd=4.34u as=0.9516p ps=4.34u w=1.56u l=0.28u
X35 a_55600_n28246.t1 clks.t1 a_55600_n26986# VDDD.t487 pfet_03v3 ad=2.535p pd=9.1u as=2.535p ps=9.1u w=3.9u l=0.28u
X36 D_C_5.t1 a_72208_n2082.t2 a_78118_n1944.t3 VDDD.t313 pfet_03v3 ad=2.535p pd=9.1u as=2.535p ps=9.1u w=3.9u l=0.28u
X37 VSSD.t602 a_n67012_n28246.t4 a_n66028_n28246.t3 VSSD.t601 nfet_03v3 ad=0.9516p pd=4.34u as=0.9516p ps=4.34u w=1.56u l=0.28u
X38 a_n75944_n28246# a_n84076_n28014.t2 a_n73180_n28246.t0 VSSD.t366 nfet_03v3 ad=0.9516p pd=4.34u as=0.9516p ps=4.34u w=1.56u l=0.28u
X39 a_n45716_n7312.t3 Set.t6 a_n45716_n6052# VDDD.t647 pfet_03v3 ad=2.535p pd=9.1u as=2.535p ps=9.1u w=3.9u l=0.28u
X40 a_n64400_n28246.t3 clks.t2 a_n64400_n26986# VDDD.t488 pfet_03v3 ad=2.535p pd=9.1u as=2.535p ps=9.1u w=3.9u l=0.28u
X41 a_n56648_10796.t1 a_n57892_11028.t2 D_C_10.t0 VDDD.t740 pfet_03v3 ad=2.535p pd=9.1u as=2.535p ps=9.1u w=3.9u l=0.28u
X42 a_42728_6688.t0 a_38108_7810.t3 a_37990_7948.t0 VSSD.t918 nfet_03v3 ad=0.9516p pd=4.34u as=0.9516p ps=4.34u w=1.56u l=0.28u
X43 a_n23256_n28014.t1 a_n24076_n28014.t2 VDDD.t441 VDDD.t440 pfet_03v3 ad=2.535p pd=9.1u as=2.535p ps=9.1u w=3.9u l=0.28u
X44 VSSD.t340 Reset.t2 a_9964_10796.t0 VSSD.t339 nfet_03v3 ad=0.9516p pd=4.34u as=0.9516p ps=4.34u w=1.56u l=0.28u
X45 SAR_Asynchronous_Logic_integration_0/SAR_Asynchronous_Logic_1/D_reset_FF_1.Q.t7 a_n28504_11030.t2 a_n11562_6650# VDDD.t624 pfet_03v3 ad=2.535p pd=9.1u as=2.535p ps=9.1u w=3.9u l=0.28u
X46 a_n21564_n6052# Set.t7 VDDD.t649 VDDD.t648 pfet_03v3 ad=2.535p pd=9.1u as=2.535p ps=9.1u w=3.9u l=0.28u
X47 CK7.t3 a_n15944_n28246# a_n14820_n26986# VDDD.t111 pfet_03v3 ad=2.535p pd=9.1u as=2.535p ps=9.1u w=3.9u l=0.28u
X48 a_n23664_10796.t1 a_n24648_10796.t4 a_n23664_12056# VDDD.t375 pfet_03v3 ad=2.535p pd=9.1u as=2.535p ps=9.1u w=3.9u l=0.28u
X49 a_16644_n6052# Reset.t3 VDDD.t317 VDDD.t316 pfet_03v3 ad=2.535p pd=9.1u as=2.535p ps=9.1u w=3.9u l=0.28u
X50 VSSD.t115 a_n43562_6650# Bit_9.t0 VSSD.t114 nfet_03v3 ad=0.9516p pd=4.34u as=0.9516p ps=4.34u w=1.56u l=1.1u
X51 a_17296_n1944# a_14118_n1944.t4 a_12828_n3204.t2 VDDD.t432 pfet_03v3 ad=2.535p pd=9.1u as=2.535p ps=9.1u w=3.9u l=0.28u
X52 a_n51172_n3204.t0 a_n55792_n2082.t2 a_n55910_n1944# VSSD.t130 nfet_03v3 ad=0.9516p pd=4.34u as=0.9516p ps=4.34u w=1.56u l=0.28u
X53 SAR_Asynchronous_Logic_integration_0/SAR_Asynchronous_Logic_0/D_reset_FF_1.Q.t3 a_n91612_11030.t2 a_n75760_12186.t2 VSSD.t124 nfet_03v3 ad=0.9516p pd=4.34u as=0.9516p ps=4.34u w=1.56u l=0.28u
X54 VDDD.t127 SAR_Asynchronous_Logic_integration_0/SAR_Asynchronous_Logic_4/D_reset_FF_1.Q.t9 SAR_Asynchronous_Logic_integration_0/SAR_Asynchronous_Logic_4/D_reset_FF_1.nQ VDDD.t126 pfet_03v3 ad=2.535p pd=9.1u as=2.535p ps=9.1u w=3.9u l=0.28u
X55 VSSD.t259 a_n55792_n2836.t2 a_n55792_n2082.t0 VSSD.t258 nfet_03v3 ad=0.9516p pd=4.34u as=0.9516p ps=4.34u w=1.56u l=0.28u
X56 a_n19172_n3204.t4 a_n23792_n2082.t2 a_n23910_n1944# VSSD.t976 nfet_03v3 ad=0.9516p pd=4.34u as=0.9516p ps=4.34u w=1.56u l=0.28u
X57 a_n15816_12056# SAR_Asynchronous_Logic_integration_0/SAR_Asynchronous_Logic_1/D_reset_FF_1.Q.t9 VDDD.t232 VDDD.t231 pfet_03v3 ad=2.535p pd=9.1u as=2.535p ps=9.1u w=3.9u l=0.28u
X58 a_12204_6688.t1 Reset.t4 VSSD.t342 VSSD.t341 nfet_03v3 ad=0.9516p pd=4.34u as=0.9516p ps=4.34u w=1.56u l=0.28u
X59 a_n22548_n7312.t1 a_n23792_n7080.t2 SAR_Asynchronous_Logic_integration_0/SAR_Asynchronous_Logic_4/D_reset_FF_1.Q.t0 VDDD.t118 pfet_03v3 ad=2.535p pd=9.1u as=2.535p ps=9.1u w=3.9u l=0.28u
X60 a_n79400_n28246.t4 a_n81028_n28246.t5 VSSD.t127 VSSD.t126 nfet_03v3 ad=0.9516p pd=4.34u as=0.9516p ps=4.34u w=1.56u l=0.28u
X61 a_25600_n26986# a_23972_n28246.t5 VDDD.t635 VDDD.t634 pfet_03v3 ad=2.535p pd=9.1u as=2.535p ps=9.1u w=3.9u l=0.28u
X62 a_3352_n7430# a_2122_n1986.t2 SAR_Asynchronous_Logic_integration_0/SAR_Asynchronous_Logic_10/D_reset_FF_1.Q.t7 VSSD.t943 nfet_03v3 ad=0.9516p pd=4.34u as=0.9516p ps=4.34u w=1.56u l=0.28u
X63 VSSD.t141 a_38108_7056.t2 a_38108_7810.t0 VSSD.t140 nfet_03v3 ad=0.9516p pd=4.34u as=0.9516p ps=4.34u w=1.56u l=0.28u
X64 a_n73180_n28246.t4 CK11.t5 VSSD.t371 VSSD.t370 nfet_03v3 ad=0.9516p pd=4.34u as=0.9516p ps=4.34u w=1.56u l=0.28u
X65 a_51744_n28014.t1 a_50924_n28014.t2 VDDD.t89 VDDD.t88 pfet_03v3 ad=2.535p pd=9.1u as=2.535p ps=9.1u w=3.9u l=0.28u
X66 SAR_Asynchronous_Logic_integration_0/SAR_Asynchronous_Logic_1/D_reset_FF_1.Q.t6 a_n25892_7810.t2 a_n19982_7948.t3 VDDD.t609 pfet_03v3 ad=2.535p pd=9.1u as=2.535p ps=9.1u w=3.9u l=0.28u
X67 a_6176_6688.t0 a_6108_7056.t2 a_5990_7948.t0 VSSD.t771 nfet_03v3 ad=0.9516p pd=4.34u as=0.9516p ps=4.34u w=1.56u l=0.28u
X68 a_35496_11030.t0 CK7.t5 VSSD.t429 VSSD.t428 nfet_03v3 ad=0.9516p pd=4.34u as=0.9516p ps=4.34u w=1.56u l=0.28u
X69 VDDD.t361 a_n61878_n2740.t2 a_n61878_n1986.t1 VDDD.t360 pfet_03v3 ad=2.535p pd=9.1u as=2.535p ps=9.1u w=3.9u l=0.28u
X70 a_n51936_n7312.t0 a_n53564_n7312.t5 VSSD.t525 VSSD.t524 nfet_03v3 ad=0.9516p pd=4.34u as=0.9516p ps=4.34u w=1.56u l=0.28u
X71 VSSD.t344 Reset.t5 a_76064_n7312.t1 VSSD.t343 nfet_03v3 ad=0.9516p pd=4.34u as=0.9516p ps=4.34u w=1.56u l=0.28u
X72 a_77420_10796# a_70108_11028.t2 a_80184_10796.t2 VDDD.t165 pfet_03v3 ad=2.535p pd=9.1u as=2.535p ps=9.1u w=3.9u l=0.28u
X73 VDDD.t817 a_2122_n1986.t3 a_8208_n2836.t1 VDDD.t816 pfet_03v3 ad=2.535p pd=9.1u as=2.535p ps=9.1u w=3.9u l=0.28u
X74 a_67988_n28246.t0 a_66744_n28014.t2 a_70600_n28246.t0 VSSD.t539 nfet_03v3 ad=0.9516p pd=4.34u as=0.9516p ps=4.34u w=1.56u l=0.28u
X75 a_n19936_n7312.t3 a_n21564_n7312.t5 VSSD.t568 VSSD.t567 nfet_03v3 ad=0.9516p pd=4.34u as=0.9516p ps=4.34u w=1.56u l=0.28u
X76 a_45420_10796# a_38108_11028.t2 a_48184_10796.t2 VDDD.t834 pfet_03v3 ad=2.535p pd=9.1u as=2.535p ps=9.1u w=3.9u l=0.28u
X77 a_16184_10796.t4 SAR_Asynchronous_Logic_integration_0/SAR_Asynchronous_Logic_5/D_reset_FF_1.Q.t9 VSSD.t940 VSSD.t939 nfet_03v3 ad=0.9516p pd=4.34u as=0.9516p ps=4.34u w=1.56u l=0.28u
X78 a_n85272_6688.t0 a_n89892_7056.t2 a_n90010_7948.t1 VDDD.t285 pfet_03v3 ad=2.535p pd=9.1u as=2.535p ps=9.1u w=3.9u l=0.28u
X79 VDDD.t422 a_72208_n2836.t2 a_72208_n2082.t1 VDDD.t421 pfet_03v3 ad=2.535p pd=9.1u as=2.535p ps=9.1u w=3.9u l=0.28u
X80 a_n81028_n26986# Set.t8 VDDD.t651 VDDD.t650 pfet_03v3 ad=2.535p pd=9.1u as=2.535p ps=9.1u w=3.9u l=0.28u
X81 a_15520_n7312.t3 a_8208_n7080.t2 a_10436_n7312.t4 VSSD.t296 nfet_03v3 ad=0.9516p pd=4.34u as=0.9516p ps=4.34u w=1.56u l=0.28u
X82 a_6108_11028.t1 a_5288_11028.t2 VDDD.t567 VDDD.t566 pfet_03v3 ad=2.535p pd=9.1u as=2.535p ps=9.1u w=3.9u l=0.28u
X83 a_3398_n1950.t0 a_2122_n2740.t2 SAR_Asynchronous_Logic_integration_0/SAR_Asynchronous_Logic_10/D_reset_FF_1.Q.t0 VDDD.t83 pfet_03v3 ad=2.535p pd=9.1u as=2.535p ps=9.1u w=3.9u l=0.28u
X84 a_n54036_10796.t2 Reset.t6 a_n54036_12056# VDDD.t318 pfet_03v3 ad=2.535p pd=9.1u as=2.535p ps=9.1u w=3.9u l=0.28u
X85 VSSD.t3 a_39352_10796.t4 a_40336_10796.t0 VSSD.t2 nfet_03v3 ad=0.9516p pd=4.34u as=0.9516p ps=4.34u w=1.56u l=0.28u
X86 a_38972_n28246.t1 a_37988_n28246.t4 a_38972_n26986# VDDD.t82 pfet_03v3 ad=2.535p pd=9.1u as=2.535p ps=9.1u w=3.9u l=0.28u
X87 VSSD.t580 clks.t3 a_n49400_n28246.t1 VSSD.t579 nfet_03v3 ad=0.9516p pd=4.34u as=0.9516p ps=4.34u w=1.56u l=0.28u
X88 a_74728_6688.t2 a_70108_7056.t2 a_69990_7948.t3 VDDD.t138 pfet_03v3 ad=2.535p pd=9.1u as=2.535p ps=9.1u w=3.9u l=0.28u
X89 VSSD.t346 Reset.t7 SAR_Asynchronous_Logic_integration_0/SAR_Asynchronous_Logic_0/D_reset_FF_0.Q.t2 VSSD.t345 nfet_03v3 ad=0.9516p pd=4.34u as=0.9516p ps=4.34u w=1.56u l=0.28u
X90 VSSD.t756 Set.t9 a_n43180_n28246.t1 VSSD.t755 nfet_03v3 ad=0.9516p pd=4.34u as=0.9516p ps=4.34u w=1.56u l=0.28u
X91 a_8208_n7080.t0 a_7388_n7080.t2 VDDD.t181 VDDD.t180 pfet_03v3 ad=2.535p pd=9.1u as=2.535p ps=9.1u w=3.9u l=0.28u
X92 a_n7012_n28246.t2 a_n8256_n28014.t2 a_n4400_n28246.t1 VSSD.t163 nfet_03v3 ad=0.9516p pd=4.34u as=0.9516p ps=4.34u w=1.56u l=0.28u
X93 a_7352_10796.t3 a_6108_11028.t2 a_9964_10796.t2 VSSD.t377 nfet_03v3 ad=0.9516p pd=4.34u as=0.9516p ps=4.34u w=1.56u l=0.28u
X94 a_n48480_n7312.t0 a_n56612_n7080.t2 a_n53564_n7312.t1 VDDD.t151 pfet_03v3 ad=2.535p pd=9.1u as=2.535p ps=9.1u w=3.9u l=0.28u
X95 a_n82580_10796# a_n89892_11028.t2 a_n79816_10796.t1 VDDD.t196 pfet_03v3 ad=2.535p pd=9.1u as=2.535p ps=9.1u w=3.9u l=0.28u
X96 a_45420_10796# a_37288_11028.t3 a_40336_10796.t2 VDDD.t30 pfet_03v3 ad=2.535p pd=9.1u as=2.535p ps=9.1u w=3.9u l=0.28u
X97 a_39348_7948# Set.t10 a_38176_6688.t4 VDDD.t652 pfet_03v3 ad=2.535p pd=9.1u as=2.535p ps=9.1u w=3.9u l=0.28u
X98 a_n14704_n1944# a_n17882_n1944.t4 a_n19172_n3204.t2 VDDD.t270 pfet_03v3 ad=2.535p pd=9.1u as=2.535p ps=9.1u w=3.9u l=0.28u
X99 VDDD.t775 SAR_Asynchronous_Logic_integration_0/SAR_Asynchronous_Logic_9/D_reset_FF_1.Q.t9 a_73448_n1944# VDDD.t774 pfet_03v3 ad=2.535p pd=9.1u as=2.535p ps=9.1u w=3.9u l=0.28u
X100 SAR_Asynchronous_Logic_integration_0/SAR_Asynchronous_Logic_6/D_reset_FF_1.Q.t6 a_68388_11030.t2 a_84240_12186.t1 VSSD.t180 nfet_03v3 ad=0.9516p pd=4.34u as=0.9516p ps=4.34u w=1.56u l=0.28u
X101 a_44064_n6052# a_42436_n7312.t5 VDDD.t202 VDDD.t201 pfet_03v3 ad=2.535p pd=9.1u as=2.535p ps=9.1u w=3.9u l=0.28u
X102 Bit_7.t2 a_20240_12186.t3 VDDD.t618 VDDD.t617 pfet_03v3 ad=2.535p pd=9.1u as=2.535p ps=9.1u w=3.9u l=1.1u
X103 a_45568_7948# Reset.t8 a_44204_6688.t2 VDDD.t319 pfet_03v3 ad=2.535p pd=9.1u as=2.535p ps=9.1u w=3.9u l=0.28u
X104 VDDD.t276 CK4.t5 a_34122_n2740.t1 VDDD.t275 pfet_03v3 ad=2.535p pd=9.1u as=2.535p ps=9.1u w=3.9u l=0.28u
X105 a_n55724_n3204.t2 Set.t11 VSSD.t758 VSSD.t757 nfet_03v3 ad=0.9516p pd=4.34u as=0.9516p ps=4.34u w=1.56u l=0.28u
X106 a_n56612_n7080.t1 clks.t4 VDDD.t490 VDDD.t489 pfet_03v3 ad=2.535p pd=9.1u as=2.535p ps=9.1u w=3.9u l=0.28u
X107 a_n6028_n26986# Set.t12 VDDD.t654 VDDD.t653 pfet_03v3 ad=2.535p pd=9.1u as=2.535p ps=9.1u w=3.9u l=0.28u
X108 a_n51028_n28246.t1 a_n52012_n28246.t4 a_n51028_n26986# VDDD.t589 pfet_03v3 ad=2.535p pd=9.1u as=2.535p ps=9.1u w=3.9u l=0.28u
X109 VSSD.t845 a_10728_6688.t5 a_12204_6688.t4 VSSD.t844 nfet_03v3 ad=0.9516p pd=4.34u as=0.9516p ps=4.34u w=1.56u l=0.28u
X110 VSSD.t841 a_66122_n2740.t2 a_66122_n1986.t1 VSSD.t840 nfet_03v3 ad=0.9516p pd=4.34u as=0.9516p ps=4.34u w=1.56u l=0.28u
X111 a_n25376_n28014# CK8.t5 VSSD.t709 VSSD.t708 nfet_03v3 ad=0.9516p pd=4.34u as=0.9516p ps=4.34u w=1.56u l=0.28u
X112 a_20924_n28014.t1 Valid.t0 VDDD.t726 VDDD.t725 pfet_03v3 ad=2.535p pd=9.1u as=2.535p ps=9.1u w=3.9u l=0.28u
X113 a_n24076_n28014.t1 Valid.t1 VDDD.t728 VDDD.t727 pfet_03v3 ad=2.535p pd=9.1u as=2.535p ps=9.1u w=3.9u l=0.28u
X114 a_73452_n7312.t2 a_71388_n7080.t2 SAR_Asynchronous_Logic_integration_0/SAR_Asynchronous_Logic_9/D_reset_FF_1.Q.t8 VSSD.t858 nfet_03v3 ad=0.9516p pd=4.34u as=0.9516p ps=4.34u w=1.56u l=0.28u
X115 VSSD.t760 Set.t13 a_n47816_10796.t2 VSSD.t759 nfet_03v3 ad=0.9516p pd=4.34u as=0.9516p ps=4.34u w=1.56u l=0.28u
X116 a_n23664_10796.t2 Set.t14 VSSD.t762 VSSD.t761 nfet_03v3 ad=0.9516p pd=4.34u as=0.9516p ps=4.34u w=1.56u l=0.28u
X117 VDDD.t478 a_n61878_n1986.t2 a_n55792_n2836.t1 VDDD.t477 pfet_03v3 ad=2.535p pd=9.1u as=2.535p ps=9.1u w=3.9u l=0.28u
X118 VSSD.t728 a_n75944_n28246# CK11.t3 VSSD.t727 nfet_03v3 ad=0.9516p pd=4.34u as=0.9516p ps=4.34u w=1.56u l=0.28u
X119 a_52988_n28246.t3 a_50924_n28014.t3 CK3.t4 VSSD.t90 nfet_03v3 ad=0.9516p pd=4.34u as=0.9516p ps=4.34u w=1.56u l=0.28u
X120 a_73452_n7312.t0 a_72208_n7080.t2 a_76064_n7312.t3 VSSD.t284 nfet_03v3 ad=0.9516p pd=4.34u as=0.9516p ps=4.34u w=1.56u l=0.28u
X121 a_n66028_n28246.t1 Set.t15 VSSD.t764 VSSD.t763 nfet_03v3 ad=0.9516p pd=4.34u as=0.9516p ps=4.34u w=1.56u l=0.28u
X122 a_n24648_10796.t2 a_n25892_11028.t2 a_n22036_10796.t1 VSSD.t589 nfet_03v3 ad=0.9516p pd=4.34u as=0.9516p ps=4.34u w=1.56u l=0.28u
X123 a_73964_10796.t0 a_72336_10796.t5 VSSD.t38 VSSD.t37 nfet_03v3 ad=0.9516p pd=4.34u as=0.9516p ps=4.34u w=1.56u l=0.28u
X124 a_n23724_n3204.t0 a_n23792_n2836.t2 a_n23910_n1944# VSSD.t158 nfet_03v3 ad=0.9516p pd=4.34u as=0.9516p ps=4.34u w=1.56u l=0.28u
X125 a_n64400_n26986# a_n66028_n28246.t5 VDDD.t312 VDDD.t311 pfet_03v3 ad=2.535p pd=9.1u as=2.535p ps=9.1u w=3.9u l=0.28u
X126 a_74436_n7312.t3 Set.t16 VSSD.t776 VSSD.t775 nfet_03v3 ad=0.9516p pd=4.34u as=0.9516p ps=4.34u w=1.56u l=0.28u
X127 SAR_Asynchronous_Logic_integration_0/SAR_Asynchronous_Logic_5/D_reset_FF_1.Q.t6 a_13420_10796# a_14544_12056# VDDD.t99 pfet_03v3 ad=2.535p pd=9.1u as=2.535p ps=9.1u w=3.9u l=0.28u
X128 CK2.t2 clks.t5 VSSD.t582 VSSD.t581 nfet_03v3 ad=0.9516p pd=4.34u as=0.9516p ps=4.34u w=1.56u l=0.28u
X129 a_6176_6688.t3 Set.t17 VSSD.t778 VSSD.t777 nfet_03v3 ad=0.9516p pd=4.34u as=0.9516p ps=4.34u w=1.56u l=0.28u
X130 a_n52912_n1944# a_n55910_n1944# SAR_Asynchronous_Logic_integration_0/SAR_Asynchronous_Logic_3/D_reset_FF_1.Q.t8 VDDD.t830 pfet_03v3 ad=2.535p pd=9.1u as=2.535p ps=9.1u w=3.9u l=0.28u
X131 a_9448_n1944# Set.t18 a_8276_n3204.t2 VDDD.t666 pfet_03v3 ad=2.535p pd=9.1u as=2.535p ps=9.1u w=3.9u l=0.28u
X132 a_49624_n28014# CK3.t5 VSSD.t867 VSSD.t866 nfet_03v3 ad=0.9516p pd=4.34u as=0.9516p ps=4.34u w=1.56u l=0.28u
X133 VSSD.t780 Set.t19 a_50284_n7312.t3 VSSD.t779 nfet_03v3 ad=0.9516p pd=4.34u as=0.9516p ps=4.34u w=1.56u l=0.28u
X134 SAR_Asynchronous_Logic_integration_0/SAR_Asynchronous_Logic_5/D_reset_FF_0.Q.t1 a_5990_7948.t4 VSSD.t935 VSSD.t934 nfet_03v3 ad=0.9516p pd=4.34u as=0.9516p ps=4.34u w=1.56u l=0.28u
X135 SAR_Asynchronous_Logic_integration_0/SAR_Asynchronous_Logic_3/D_reset_FF_0.Q.t2 Reset.t9 VSSD.t348 VSSD.t347 nfet_03v3 ad=0.9516p pd=4.34u as=0.9516p ps=4.34u w=1.56u l=0.28u
X136 VDDD.t787 a_n60602_n1950.t3 Bit_0.t0 VDDD.t786 pfet_03v3 ad=2.535p pd=9.1u as=2.535p ps=9.1u w=3.9u l=1.1u
X137 a_n24648_10796.t0 a_n26712_11028.t2 D_C_9.t0 VSSD.t276 nfet_03v3 ad=0.9516p pd=4.34u as=0.9516p ps=4.34u w=1.56u l=0.28u
X138 SAR_Asynchronous_Logic_integration_0/SAR_Asynchronous_Logic_0/D_reset_FF_0.Q.t0 a_n90010_7948.t4 VSSD.t222 VSSD.t221 nfet_03v3 ad=0.9516p pd=4.34u as=0.9516p ps=4.34u w=1.56u l=0.28u
X139 SAR_Asynchronous_Logic_integration_0/SAR_Asynchronous_Logic_9/D_reset_FF_0.nQ SAR_Asynchronous_Logic_integration_0/SAR_Asynchronous_Logic_9/D_reset_FF_0.Q.t3 VDDD.t689 VDDD.t688 pfet_03v3 ad=2.535p pd=9.1u as=2.535p ps=9.1u w=3.9u l=0.28u
X140 a_8972_n28246.t2 Set.t20 VSSD.t782 VSSD.t781 nfet_03v3 ad=0.9516p pd=4.34u as=0.9516p ps=4.34u w=1.56u l=0.28u
X141 VSSD.t784 Set.t21 a_18284_n7312.t1 VSSD.t783 nfet_03v3 ad=0.9516p pd=4.34u as=0.9516p ps=4.34u w=1.56u l=0.28u
X142 a_n54036_12056# a_n55664_10796.t5 VDDD.t750 VDDD.t749 pfet_03v3 ad=2.535p pd=9.1u as=2.535p ps=9.1u w=3.9u l=0.28u
X143 a_n60504_11030.t0 CK10.t6 VSSD.t900 VSSD.t899 nfet_03v3 ad=0.9516p pd=4.34u as=0.9516p ps=4.34u w=1.56u l=0.28u
X144 a_n55376_n28014# CK10.t7 VDDD.t2 VDDD.t1 pfet_03v3 ad=2.535p pd=9.1u as=2.535p ps=9.1u w=3.9u l=0.28u
X145 a_n89824_6688.t2 Set.t22 VSSD.t786 VSSD.t785 nfet_03v3 ad=0.9516p pd=4.34u as=0.9516p ps=4.34u w=1.56u l=0.28u
X146 a_15520_n7312.t2 a_8208_n7080.t3 a_18284_n7312.t3 VDDD.t81 pfet_03v3 ad=2.535p pd=9.1u as=2.535p ps=9.1u w=3.9u l=0.28u
X147 a_9964_12056# a_8336_10796.t5 VDDD.t626 VDDD.t625 pfet_03v3 ad=2.535p pd=9.1u as=2.535p ps=9.1u w=3.9u l=0.28u
X148 VDDD.t33 a_n28602_n1950.t3 Bit_1.t0 VDDD.t32 pfet_03v3 ad=2.535p pd=9.1u as=2.535p ps=9.1u w=3.9u l=1.1u
X149 a_75088_n1944# a_72090_n1944# SAR_Asynchronous_Logic_integration_0/SAR_Asynchronous_Logic_9/D_reset_FF_1.Q.t1 VDDD.t76 pfet_03v3 ad=2.535p pd=9.1u as=2.535p ps=9.1u w=3.9u l=0.28u
X150 a_n49696_n3204.t3 Reset.t10 VSSD.t350 VSSD.t349 nfet_03v3 ad=0.9516p pd=4.34u as=0.9516p ps=4.34u w=1.56u l=0.28u
X151 CK1.t1 a_74056_n28246# a_75180_n26986# VDDD.t47 pfet_03v3 ad=2.535p pd=9.1u as=2.535p ps=9.1u w=3.9u l=0.28u
X152 a_78304_n3204.t1 a_72208_n2082.t3 a_78118_n1944.t2 VSSD.t365 nfet_03v3 ad=0.9516p pd=4.34u as=0.9516p ps=4.34u w=1.56u l=0.28u
X153 a_n28504_11030.t0 CK9.t6 VSSD.t527 VSSD.t526 nfet_03v3 ad=0.9516p pd=4.34u as=0.9516p ps=4.34u w=1.56u l=0.28u
X154 VDDD.t492 clks.t6 a_n25892_7056.t1 VDDD.t491 pfet_03v3 ad=2.535p pd=9.1u as=2.535p ps=9.1u w=3.9u l=0.28u
X155 a_25600_n28246.t2 clks.t7 a_25600_n26986# VDDD.t493 pfet_03v3 ad=2.535p pd=9.1u as=2.535p ps=9.1u w=3.9u l=0.28u
X156 a_n57892_11028.t1 a_n58712_11028.t3 VDDD.t657 VDDD.t656 pfet_03v3 ad=2.535p pd=9.1u as=2.535p ps=9.1u w=3.9u l=0.28u
X157 a_80184_10796.t4 Set.t23 a_80184_12056# VDDD.t667 pfet_03v3 ad=2.535p pd=9.1u as=2.535p ps=9.1u w=3.9u l=0.28u
X158 a_84240_12186.t0 a_68388_11030.t3 VDDD.t167 VDDD.t166 pfet_03v3 ad=2.535p pd=9.1u as=2.535p ps=9.1u w=3.9u l=1.1u
X159 VDDD.t437 SAR_Asynchronous_Logic_integration_0/SAR_Asynchronous_Logic_1/D_reset_FF_0.Q.t3 SAR_Asynchronous_Logic_integration_0/SAR_Asynchronous_Logic_1/D_reset_FF_0.nQ VDDD.t436 pfet_03v3 ad=2.535p pd=9.1u as=2.535p ps=9.1u w=3.9u l=0.28u
X160 a_n45944_n28246# a_n54076_n28014.t2 a_n43180_n28246.t0 VSSD.t46 nfet_03v3 ad=0.9516p pd=4.34u as=0.9516p ps=4.34u w=1.56u l=0.28u
X161 VDDD.t321 Reset.t11 a_n20912_n1944# VDDD.t320 pfet_03v3 ad=2.535p pd=9.1u as=2.535p ps=9.1u w=3.9u l=0.28u
X162 a_14304_n3204.t1 Reset.t12 VSSD.t352 VSSD.t351 nfet_03v3 ad=0.9516p pd=4.34u as=0.9516p ps=4.34u w=1.56u l=0.28u
X163 VSSD.t53 a_n37012_n28246.t4 a_n36028_n28246.t0 VSSD.t52 nfet_03v3 ad=0.9516p pd=4.34u as=0.9516p ps=4.34u w=1.56u l=0.28u
X164 VDDD.t334 a_42728_6688.t5 a_45568_7948# VDDD.t333 pfet_03v3 ad=2.535p pd=9.1u as=2.535p ps=9.1u w=3.9u l=0.28u
X165 SAR_Asynchronous_Logic_integration_0/SAR_Asynchronous_Logic_4/D_reset_FF_0.nQ SAR_Asynchronous_Logic_integration_0/SAR_Asynchronous_Logic_4/D_reset_FF_0.Q.t4 VDDD.t254 VDDD.t253 pfet_03v3 ad=2.535p pd=9.1u as=2.535p ps=9.1u w=3.9u l=0.28u
X166 a_n944_n28246# a_n9076_n28014.t2 a_n6028_n28246.t0 VDDD.t34 pfet_03v3 ad=2.535p pd=9.1u as=2.535p ps=9.1u w=3.9u l=0.28u
X167 a_n34400_n28246.t1 clks.t8 a_n34400_n26986# VDDD.t494 pfet_03v3 ad=2.535p pd=9.1u as=2.535p ps=9.1u w=3.9u l=0.28u
X168 a_48184_10796.t4 Set.t24 a_48184_12056# VDDD.t668 pfet_03v3 ad=2.535p pd=9.1u as=2.535p ps=9.1u w=3.9u l=0.28u
X169 a_n60944_n28246# a_n68256_n28014.t2 a_n66028_n28246.t0 VSSD.t42 nfet_03v3 ad=0.9516p pd=4.34u as=0.9516p ps=4.34u w=1.56u l=0.28u
X170 a_72276_n3204.t1 a_72208_n2836.t3 a_72090_n1944# VSSD.t495 nfet_03v3 ad=0.9516p pd=4.34u as=0.9516p ps=4.34u w=1.56u l=0.28u
X171 a_35352_n7430# a_34122_n2740.t2 SAR_Asynchronous_Logic_integration_0/SAR_Asynchronous_Logic_7/D_reset_FF_1.Q.t6 VDDD.t732 pfet_03v3 ad=2.535p pd=9.1u as=2.535p ps=9.1u w=3.9u l=0.28u
X172 a_79624_n28014# CK1.t4 VDDD.t602 VDDD.t601 pfet_03v3 ad=2.535p pd=9.1u as=2.535p ps=9.1u w=3.9u l=0.28u
X173 VCM.t14 a_67496_11030.t3 Bit_5.t2 VSSD.t521 nfet_03v3 ad=0.9516p pd=4.34u as=0.9516p ps=4.34u w=1.56u l=0.28u
X174 a_n82580_10796# a_n89892_11028.t3 a_n87664_10796.t4 VSSD.t210 nfet_03v3 ad=0.9516p pd=4.34u as=0.9516p ps=4.34u w=1.56u l=0.28u
X175 VDDD.t742 a_12828_n3204.t5 a_15668_n1944# VDDD.t741 pfet_03v3 ad=2.535p pd=9.1u as=2.535p ps=9.1u w=3.9u l=0.28u
X176 VDDD.t85 a_2122_n2740.t3 a_2122_n1986.t0 VDDD.t84 pfet_03v3 ad=2.535p pd=9.1u as=2.535p ps=9.1u w=3.9u l=0.28u
X177 VDDD.t496 clks.t9 a_70108_7056.t1 VDDD.t495 pfet_03v3 ad=2.535p pd=9.1u as=2.535p ps=9.1u w=3.9u l=0.28u
X178 Bit_4.t3 a_67352_n7430# VSSD.t959 VSSD.t958 nfet_03v3 ad=0.9516p pd=4.34u as=0.9516p ps=4.34u w=1.56u l=1.1u
X179 a_13420_10796# a_5288_11028.t3 a_16184_10796.t3 VSSD.t660 nfet_03v3 ad=0.9516p pd=4.34u as=0.9516p ps=4.34u w=1.56u l=0.28u
X180 VSSD.t788 Set.t25 a_10728_6688.t1 VSSD.t787 nfet_03v3 ad=0.9516p pd=4.34u as=0.9516p ps=4.34u w=1.56u l=0.28u
X181 Bit_0.t3 a_n60648_n7430# VSSD.t570 VSSD.t569 nfet_03v3 ad=0.9516p pd=4.34u as=0.9516p ps=4.34u w=1.56u l=1.1u
X182 a_n49400_n28246.t4 a_n51028_n28246.t5 VSSD.t950 VSSD.t949 nfet_03v3 ad=0.9516p pd=4.34u as=0.9516p ps=4.34u w=1.56u l=0.28u
X183 a_10436_n7312.t0 a_9452_n7312.t4 a_10436_n6052# VDDD.t41 pfet_03v3 ad=2.535p pd=9.1u as=2.535p ps=9.1u w=3.9u l=0.28u
X184 VSSD.t354 Reset.t13 a_n22036_10796.t2 VSSD.t353 nfet_03v3 ad=0.9516p pd=4.34u as=0.9516p ps=4.34u w=1.56u l=0.28u
X185 VDDD.t783 SAR_Asynchronous_Logic_integration_0/SAR_Asynchronous_Logic_3/D_reset_FF_1.Q.t9 a_n54552_n1944# VDDD.t782 pfet_03v3 ad=2.535p pd=9.1u as=2.535p ps=9.1u w=3.9u l=0.28u
X186 VSSD.t653 a_n16480_n7312.t4 SAR_Asynchronous_Logic_integration_0/SAR_Asynchronous_Logic_4/D_reset_FF_0.Q.t1 VSSD.t652 nfet_03v3 ad=0.9516p pd=4.34u as=0.9516p ps=4.34u w=1.56u l=0.28u
X187 a_21744_n28014.t1 a_20924_n28014.t3 VDDD.t796 VDDD.t795 pfet_03v3 ad=2.535p pd=9.1u as=2.535p ps=9.1u w=3.9u l=0.28u
X188 VSSD.t356 Reset.t14 a_73964_10796.t2 VSSD.t355 nfet_03v3 ad=0.9516p pd=4.34u as=0.9516p ps=4.34u w=1.56u l=0.28u
X189 a_n60648_n7430# a_n61878_n1986.t3 SAR_Asynchronous_Logic_integration_0/SAR_Asynchronous_Logic_3/D_reset_FF_1.Q.t1 VSSD.t156 nfet_03v3 ad=0.9516p pd=4.34u as=0.9516p ps=4.34u w=1.56u l=0.28u
X190 a_n43180_n28246.t3 CK9.t7 VSSD.t529 VSSD.t528 nfet_03v3 ad=0.9516p pd=4.34u as=0.9516p ps=4.34u w=1.56u l=0.28u
X191 a_n87664_10796.t2 a_n88648_10796.t4 a_n87664_12056# VDDD.t588 pfet_03v3 ad=2.535p pd=9.1u as=2.535p ps=9.1u w=3.9u l=0.28u
X192 VSSD.t358 Reset.t15 SAR_Asynchronous_Logic_integration_0/SAR_Asynchronous_Logic_5/D_reset_FF_0.Q.t0 VSSD.t357 nfet_03v3 ad=0.9516p pd=4.34u as=0.9516p ps=4.34u w=1.56u l=0.28u
X193 a_40276_n3204.t0 Set.t26 VSSD.t790 VSSD.t789 nfet_03v3 ad=0.9516p pd=4.34u as=0.9516p ps=4.34u w=1.56u l=0.28u
X194 Bit_1.t1 a_n28648_n7430# VSSD.t160 VSSD.t159 nfet_03v3 ad=0.9516p pd=4.34u as=0.9516p ps=4.34u w=1.56u l=1.1u
X195 VSSD.t518 SAR_Asynchronous_Logic_integration_0/SAR_Asynchronous_Logic_1/D_reset_FF_0.Q.t4 a_n25824_6688.t3 VSSD.t517 nfet_03v3 ad=0.9516p pd=4.34u as=0.9516p ps=4.34u w=1.56u l=0.28u
X196 a_68972_n28246.t4 Set.t27 VSSD.t792 VSSD.t791 nfet_03v3 ad=0.9516p pd=4.34u as=0.9516p ps=4.34u w=1.56u l=0.28u
X197 Bit_4.t2 a_66122_n2740.t3 VCM.t2 VSSD.t105 nfet_03v3 ad=0.9516p pd=4.34u as=0.9516p ps=4.34u w=1.56u l=0.28u
X198 a_37988_n28246.t0 a_36744_n28014.t2 a_40600_n28246.t2 VSSD.t97 nfet_03v3 ad=0.9516p pd=4.34u as=0.9516p ps=4.34u w=1.56u l=0.28u
X199 a_n82012_n28246.t1 a_n84076_n28014.t3 a_n79400_n28246.t0 VDDD.t323 pfet_03v3 ad=2.535p pd=9.1u as=2.535p ps=9.1u w=3.9u l=0.28u
X200 a_13420_10796# a_6108_11028.t3 a_8336_10796.t1 VSSD.t378 nfet_03v3 ad=0.9516p pd=4.34u as=0.9516p ps=4.34u w=1.56u l=0.28u
X201 a_n51028_n26986# Set.t28 VDDD.t670 VDDD.t669 pfet_03v3 ad=2.535p pd=9.1u as=2.535p ps=9.1u w=3.9u l=0.28u
X202 a_n79816_12056# SAR_Asynchronous_Logic_integration_0/SAR_Asynchronous_Logic_0/D_reset_FF_1.Q.t10 VDDD.t427 VDDD.t426 pfet_03v3 ad=2.535p pd=9.1u as=2.535p ps=9.1u w=3.9u l=0.28u
X203 a_n50580_10796# a_n58712_11028.t4 a_n47816_10796.t4 VSSD.t765 nfet_03v3 ad=0.9516p pd=4.34u as=0.9516p ps=4.34u w=1.56u l=0.28u
X204 a_76204_6688.t0 a_70108_7810.t2 a_76018_7948.t1 VSSD.t110 nfet_03v3 ad=0.9516p pd=4.34u as=0.9516p ps=4.34u w=1.56u l=0.28u
X205 VSSD.t657 SAR_Asynchronous_Logic_integration_0/SAR_Asynchronous_Logic_10/D_reset_FF_1.Q.t9 SAR_Asynchronous_Logic_integration_0/SAR_Asynchronous_Logic_10/D_reset_FF_1.nQ VSSD.t656 nfet_03v3 ad=0.9516p pd=4.34u as=0.9516p ps=4.34u w=1.56u l=0.28u
X206 VDDD.t287 a_n89892_7056.t3 a_n89892_7810.t1 VDDD.t286 pfet_03v3 ad=2.535p pd=9.1u as=2.535p ps=9.1u w=3.9u l=0.28u
X207 VDDD.t172 SAR_Asynchronous_Logic_integration_0/SAR_Asynchronous_Logic_6/D_reset_FF_0.Q.t3 a_71348_7948# VDDD.t171 pfet_03v3 ad=2.535p pd=9.1u as=2.535p ps=9.1u w=3.9u l=0.28u
X208 a_76820_n26986# CK1.t5 VDDD.t604 VDDD.t603 pfet_03v3 ad=2.535p pd=9.1u as=2.535p ps=9.1u w=3.9u l=0.28u
X209 a_n53564_n7312.t2 a_n54548_n7312.t4 a_n53564_n6052# VDDD.t200 pfet_03v3 ad=2.535p pd=9.1u as=2.535p ps=9.1u w=3.9u l=0.28u
X210 a_n60602_n1950.t2 a_n61878_n2740.t3 SAR_Asynchronous_Logic_integration_0/SAR_Asynchronous_Logic_3/D_reset_FF_1.Q.t6 VDDD.t362 pfet_03v3 ad=2.535p pd=9.1u as=2.535p ps=9.1u w=3.9u l=0.28u
X211 VSSD.t584 clks.t10 a_n19400_n28246.t1 VSSD.t583 nfet_03v3 ad=0.9516p pd=4.34u as=0.9516p ps=4.34u w=1.56u l=0.28u
X212 a_n89824_6688.t1 a_n89892_7056.t4 a_n90010_7948.t2 VSSD.t309 nfet_03v3 ad=0.9516p pd=4.34u as=0.9516p ps=4.34u w=1.56u l=0.28u
X213 a_70600_n26986# a_68972_n28246.t5 VDDD.t107 VDDD.t106 pfet_03v3 ad=2.535p pd=9.1u as=2.535p ps=9.1u w=3.9u l=0.28u
X214 VDDD.t672 Set.t29 a_n80804_7948# VDDD.t671 pfet_03v3 ad=2.535p pd=9.1u as=2.535p ps=9.1u w=3.9u l=0.28u
X215 VSSD.t794 Set.t30 a_n13180_n28246.t2 VSSD.t793 nfet_03v3 ad=0.9516p pd=4.34u as=0.9516p ps=4.34u w=1.56u l=0.28u
X216 VDDD.t415 a_66122_n1986.t3 a_72208_n2836.t1 VDDD.t414 pfet_03v3 ad=2.535p pd=9.1u as=2.535p ps=9.1u w=3.9u l=0.28u
X217 SAR_Asynchronous_Logic_integration_0/SAR_Asynchronous_Logic_5/D_reset_FF_1.Q.t8 a_6108_7810.t2 a_12018_7948.t3 VDDD.t265 pfet_03v3 ad=2.535p pd=9.1u as=2.535p ps=9.1u w=3.9u l=0.28u
X218 VDDD.t178 a_34122_n1986.t2 a_35398_n1950.t1 VDDD.t177 pfet_03v3 ad=2.535p pd=9.1u as=2.535p ps=9.1u w=3.9u l=1.1u
X219 a_n45716_n6052# SAR_Asynchronous_Logic_integration_0/SAR_Asynchronous_Logic_3/D_reset_FF_0.Q.t3 VDDD.t773 VDDD.t772 pfet_03v3 ad=2.535p pd=9.1u as=2.535p ps=9.1u w=3.9u l=0.28u