* Extracted by KLayout with GF180MCU LVS runset on : 21/12/2023 23:00

.SUBCKT PRbiased_net_x5 ITP5 ITP4 ITP3 ITP2 ITP1 ITN1 ITN2 ITN3 ITN4 ITN5 IBN1
+ IBN2 IBN3 IBN4 IBN5 VDD VA VB IBP1 IBP2 IBP3 IBP4 IBP5 VSS
M$1 VDD VDD VDD VDD pfet_03v3 L=2U W=2U AS=1.3P AD=0.84P PS=5.3U PD=2.84U
M$2 VDD VDD VDD VDD pfet_03v3 L=2U W=2U AS=0.84P AD=1.3P PS=2.84U PD=5.3U
M$3 VDD VDD VDD VDD pfet_03v3 L=2U W=2U AS=1.3P AD=0.84P PS=5.3U PD=2.84U
M$4 VDD VDD VDD VDD pfet_03v3 L=2U W=2U AS=0.84P AD=1.3P PS=2.84U PD=5.3U
M$5 VDD VDD VDD VDD pfet_03v3 L=2U W=2U AS=1.3P AD=0.84P PS=5.3U PD=2.84U
M$6 VDD VDD VDD VDD pfet_03v3 L=2U W=2U AS=0.84P AD=1.3P PS=2.84U PD=5.3U
M$7 VDD VDD VDD VDD pfet_03v3 L=2U W=2U AS=1.3P AD=0.84P PS=5.3U PD=2.84U
M$8 VDD VDD VDD VDD pfet_03v3 L=2U W=2U AS=0.84P AD=1.3P PS=2.84U PD=5.3U
M$9 VDD VDD VDD VDD pfet_03v3 L=2U W=2U AS=1.3P AD=0.84P PS=5.3U PD=2.84U
M$10 VDD VDD VDD VDD pfet_03v3 L=2U W=2U AS=0.84P AD=1.3P PS=2.84U PD=5.3U
M$11 VDD VDD VDD VDD pfet_03v3 L=2U W=2U AS=1.3P AD=0.84P PS=5.3U PD=2.84U
M$12 VDD VDD VDD VDD pfet_03v3 L=2U W=2U AS=0.84P AD=1.3P PS=2.84U PD=5.3U
M$13 VDD VDD VDD VDD pfet_03v3 L=2U W=2U AS=1.3P AD=0.84P PS=5.3U PD=2.84U
M$14 VDD VDD VDD VDD pfet_03v3 L=2U W=2U AS=0.84P AD=1.3P PS=2.84U PD=5.3U
M$15 VDD VDD VDD VDD pfet_03v3 L=2U W=2U AS=1.3P AD=0.84P PS=5.3U PD=2.84U
M$16 VDD VDD VDD VDD pfet_03v3 L=2U W=2U AS=0.84P AD=1.3P PS=2.84U PD=5.3U
M$17 VDD VDD VDD VDD pfet_03v3 L=2U W=2U AS=1.3P AD=0.84P PS=5.3U PD=2.84U
M$18 VDD VDD VDD VDD pfet_03v3 L=2U W=2U AS=0.84P AD=1.3P PS=2.84U PD=5.3U
M$19 VDD VDD VDD VDD pfet_03v3 L=2U W=2U AS=1.3P AD=0.84P PS=5.3U PD=2.84U
M$20 VDD VDD VDD VDD pfet_03v3 L=2U W=2U AS=0.84P AD=1.3P PS=2.84U PD=5.3U
M$21 VDD VDD VDD VDD pfet_03v3 L=2U W=2U AS=1.3P AD=0.84P PS=5.3U PD=2.84U
M$22 VDD VDD VDD VDD pfet_03v3 L=2U W=2U AS=0.84P AD=1.3P PS=2.84U PD=5.3U
M$23 VDD VDD VDD VDD pfet_03v3 L=2U W=2U AS=1.3P AD=0.84P PS=5.3U PD=2.84U
M$24 VDD VDD VDD VDD pfet_03v3 L=2U W=2U AS=0.84P AD=1.3P PS=2.84U PD=5.3U
M$25 VDD VDD VDD VDD pfet_03v3 L=2U W=2U AS=1.3P AD=0.84P PS=5.3U PD=2.84U
M$26 VDD VDD VDD VDD pfet_03v3 L=2U W=2U AS=0.84P AD=1.3P PS=2.84U PD=5.3U
M$27 VDD VDD VDD VDD pfet_03v3 L=2U W=2U AS=1.3P AD=0.84P PS=5.3U PD=2.84U
M$28 VDD VDD VDD VDD pfet_03v3 L=2U W=2U AS=0.84P AD=1.3P PS=2.84U PD=5.3U
M$29 VDD VDD VDD VDD pfet_03v3 L=2U W=2U AS=1.3P AD=0.84P PS=5.3U PD=2.84U
M$30 VDD VDD VDD VDD pfet_03v3 L=2U W=2U AS=0.84P AD=1.3P PS=2.84U PD=5.3U
M$31 VDD VDD VDD VDD pfet_03v3 L=2U W=2U AS=1.3P AD=0.84P PS=5.3U PD=2.84U
M$32 VDD VDD VDD VDD pfet_03v3 L=2U W=2U AS=0.84P AD=1.3P PS=2.84U PD=5.3U
M$33 VDD VDD VDD VDD pfet_03v3 L=2U W=2U AS=1.3P AD=0.84P PS=5.3U PD=2.84U
M$34 VDD VDD VDD VDD pfet_03v3 L=2U W=2U AS=0.84P AD=1.3P PS=2.84U PD=5.3U
M$35 VDD VDD VDD VDD pfet_03v3 L=2U W=2U AS=1.3P AD=0.84P PS=5.3U PD=2.84U
M$36 VDD VDD VDD VDD pfet_03v3 L=2U W=2U AS=0.84P AD=1.3P PS=2.84U PD=5.3U
M$37 VDD VDD VDD VDD pfet_03v3 L=2U W=2U AS=1.3P AD=0.84P PS=5.3U PD=2.84U
M$38 VDD VDD VDD VDD pfet_03v3 L=2U W=2U AS=0.84P AD=1.3P PS=2.84U PD=5.3U
M$39 VDD VDD VDD VDD pfet_03v3 L=2U W=2U AS=1.3P AD=0.84P PS=5.3U PD=2.84U
M$40 VDD VDD VDD VDD pfet_03v3 L=2U W=2U AS=0.84P AD=1.3P PS=2.84U PD=5.3U
M$41 VDD VDD VDD VDD pfet_03v3 L=2U W=2U AS=1.3P AD=0.84P PS=5.3U PD=2.84U
M$42 VDD VDD VDD VDD pfet_03v3 L=2U W=2U AS=0.84P AD=1.3P PS=2.84U PD=5.3U
M$43 VDD VDD VDD VDD pfet_03v3 L=2U W=2U AS=1.3P AD=0.84P PS=5.3U PD=2.84U
M$44 VDD VDD VDD VDD pfet_03v3 L=2U W=2U AS=0.84P AD=1.3P PS=2.84U PD=5.3U
M$45 VDD VDD VDD VDD pfet_03v3 L=2U W=2U AS=1.3P AD=0.84P PS=5.3U PD=2.84U
M$46 VDD VDD VDD VDD pfet_03v3 L=2U W=2U AS=0.84P AD=1.3P PS=2.84U PD=5.3U
M$47 VDD VDD VDD VDD pfet_03v3 L=2U W=2U AS=1.3P AD=0.84P PS=5.3U PD=2.84U
M$48 VDD VDD VDD VDD pfet_03v3 L=2U W=2U AS=0.84P AD=1.3P PS=2.84U PD=5.3U
M$49 VDD VDD VDD VDD pfet_03v3 L=2U W=2U AS=1.3P AD=0.84P PS=5.3U PD=2.84U
M$50 VDD VDD VDD VDD pfet_03v3 L=2U W=2U AS=0.84P AD=1.3P PS=2.84U PD=5.3U
M$51 VDD VDD VDD VDD pfet_03v3 L=2U W=2U AS=1.3P AD=0.84P PS=5.3U PD=2.84U
M$52 VDD VDD VDD VDD pfet_03v3 L=2U W=2U AS=0.84P AD=1.3P PS=2.84U PD=5.3U
M$53 VDD VDD VDD VDD pfet_03v3 L=2U W=2U AS=1.3P AD=0.84P PS=5.3U PD=2.84U
M$54 VDD VDD VDD VDD pfet_03v3 L=2U W=2U AS=0.84P AD=1.3P PS=2.84U PD=5.3U
M$55 VDD VDD VDD VDD pfet_03v3 L=2U W=2U AS=1.3P AD=0.84P PS=5.3U PD=2.84U
M$56 VDD VDD VDD VDD pfet_03v3 L=2U W=2U AS=0.84P AD=1.3P PS=2.84U PD=5.3U
M$57 VDD VDD VDD VDD pfet_03v3 L=2U W=2U AS=1.3P AD=0.84P PS=5.3U PD=2.84U
M$58 VDD VDD VDD VDD pfet_03v3 L=2U W=2U AS=0.84P AD=1.3P PS=2.84U PD=5.3U
M$59 VDD VDD VDD VDD pfet_03v3 L=2U W=2U AS=1.3P AD=0.84P PS=5.3U PD=2.84U
M$60 VDD VDD VDD VDD pfet_03v3 L=2U W=2U AS=0.84P AD=1.3P PS=2.84U PD=5.3U
M$61 VDD VDD VDD VDD pfet_03v3 L=2U W=2U AS=1.3P AD=0.84P PS=5.3U PD=2.84U
M$62 VDD VDD VDD VDD pfet_03v3 L=2U W=2U AS=0.84P AD=1.3P PS=2.84U PD=5.3U
M$63 VDD VDD VDD VDD pfet_03v3 L=2U W=2U AS=1.3P AD=0.84P PS=5.3U PD=2.84U
M$64 VDD VDD VDD VDD pfet_03v3 L=2U W=2U AS=0.84P AD=1.3P PS=2.84U PD=5.3U
M$65 VDD VDD VDD VDD pfet_03v3 L=2U W=2U AS=1.3P AD=0.84P PS=5.3U PD=2.84U
M$66 VDD VDD VDD VDD pfet_03v3 L=2U W=2U AS=0.84P AD=1.3P PS=2.84U PD=5.3U
M$67 VDD VDD VDD VDD pfet_03v3 L=2U W=2U AS=1.3P AD=0.84P PS=5.3U PD=2.84U
M$68 VDD VDD VDD VDD pfet_03v3 L=2U W=2U AS=0.84P AD=1.3P PS=2.84U PD=5.3U
M$69 VDD VDD VDD VDD pfet_03v3 L=2U W=2U AS=1.3P AD=0.84P PS=5.3U PD=2.84U
M$70 VDD VDD VDD VDD pfet_03v3 L=2U W=2U AS=0.84P AD=1.3P PS=2.84U PD=5.3U
M$71 VDD VDD VDD VDD pfet_03v3 L=2U W=2U AS=1.3P AD=0.84P PS=5.3U PD=2.84U
M$72 VDD VDD VDD VDD pfet_03v3 L=2U W=2U AS=0.84P AD=1.3P PS=2.84U PD=5.3U
M$73 VDD VDD VDD VDD pfet_03v3 L=2U W=2U AS=1.3P AD=0.84P PS=5.3U PD=2.84U
M$74 VDD VDD VDD VDD pfet_03v3 L=2U W=2U AS=0.84P AD=1.3P PS=2.84U PD=5.3U
M$75 VDD VDD VDD VDD pfet_03v3 L=2U W=2U AS=1.3P AD=0.84P PS=5.3U PD=2.84U
M$76 VDD VDD VDD VDD pfet_03v3 L=2U W=2U AS=0.84P AD=1.3P PS=2.84U PD=5.3U
M$77 VDD VDD VDD VDD pfet_03v3 L=2U W=2U AS=1.3P AD=0.84P PS=5.3U PD=2.84U
M$78 VDD VDD VDD VDD pfet_03v3 L=2U W=2U AS=0.84P AD=1.3P PS=2.84U PD=5.3U
M$79 VDD VDD VDD VDD pfet_03v3 L=2U W=2U AS=1.3P AD=0.84P PS=5.3U PD=2.84U
M$80 VDD VDD VDD VDD pfet_03v3 L=2U W=2U AS=0.84P AD=1.3P PS=2.84U PD=5.3U
M$81 VDD VDD VDD VDD pfet_03v3 L=2U W=2U AS=1.3P AD=0.84P PS=5.3U PD=2.84U
M$82 VDD VDD VDD VDD pfet_03v3 L=2U W=2U AS=0.84P AD=1.3P PS=2.84U PD=5.3U
M$83 VDD VDD VDD VDD pfet_03v3 L=2U W=2U AS=1.3P AD=0.84P PS=5.3U PD=2.84U
M$84 VDD VDD VDD VDD pfet_03v3 L=2U W=2U AS=0.84P AD=1.3P PS=2.84U PD=5.3U
M$85 VDD VDD VDD VDD pfet_03v3 L=2U W=2U AS=1.3P AD=0.84P PS=5.3U PD=2.84U
M$86 VDD VDD VDD VDD pfet_03v3 L=2U W=2U AS=0.84P AD=1.3P PS=2.84U PD=5.3U
M$87 VDD VDD VDD VDD pfet_03v3 L=2U W=2U AS=1.3P AD=0.84P PS=5.3U PD=2.84U
M$88 VDD VDD VDD VDD pfet_03v3 L=2U W=2U AS=0.84P AD=1.3P PS=2.84U PD=5.3U
M$89 VDD VDD VDD VDD pfet_03v3 L=2U W=2U AS=1.3P AD=0.84P PS=5.3U PD=2.84U
M$90 VDD VDD VDD VDD pfet_03v3 L=2U W=2U AS=0.84P AD=1.3P PS=2.84U PD=5.3U
M$91 VDD VDD VDD VDD pfet_03v3 L=2U W=2U AS=1.3P AD=0.84P PS=5.3U PD=2.84U
M$92 VDD VDD VDD VDD pfet_03v3 L=2U W=2U AS=0.84P AD=1.3P PS=2.84U PD=5.3U
M$93 VDD VDD VDD VDD pfet_03v3 L=2U W=2U AS=1.3P AD=0.84P PS=5.3U PD=2.84U
M$94 VDD VDD VDD VDD pfet_03v3 L=2U W=2U AS=0.84P AD=1.3P PS=2.84U PD=5.3U
M$95 VDD VDD VDD VDD pfet_03v3 L=2U W=2U AS=1.3P AD=0.84P PS=5.3U PD=2.84U
M$96 VDD VDD VDD VDD pfet_03v3 L=2U W=2U AS=0.84P AD=1.3P PS=2.84U PD=5.3U
M$97 VDD VDD VDD VDD pfet_03v3 L=2U W=2U AS=1.3P AD=0.84P PS=5.3U PD=2.84U
M$98 VDD VDD VDD VDD pfet_03v3 L=2U W=2U AS=0.84P AD=1.3P PS=2.84U PD=5.3U
M$99 VDD VDD VDD VDD pfet_03v3 L=2U W=2U AS=1.3P AD=0.84P PS=5.3U PD=2.84U
M$100 VDD VDD VDD VDD pfet_03v3 L=2U W=2U AS=0.84P AD=1.3P PS=2.84U PD=5.3U
M$101 VDD VDD VDD VDD pfet_03v3 L=2U W=2U AS=1.3P AD=0.84P PS=5.3U PD=2.84U
M$102 VDD VDD VDD VDD pfet_03v3 L=2U W=2U AS=0.84P AD=1.3P PS=2.84U PD=5.3U
M$103 VDD VDD VDD VDD pfet_03v3 L=2U W=2U AS=1.3P AD=0.84P PS=5.3U PD=2.84U
M$104 VDD VDD VDD VDD pfet_03v3 L=2U W=2U AS=0.84P AD=1.3P PS=2.84U PD=5.3U
M$105 VDD VDD VDD VDD pfet_03v3 L=2U W=2U AS=1.3P AD=0.84P PS=5.3U PD=2.84U
M$106 VDD VDD VDD VDD pfet_03v3 L=2U W=2U AS=0.84P AD=1.3P PS=2.84U PD=5.3U
M$107 VDD VDD VDD VDD pfet_03v3 L=2U W=2U AS=1.3P AD=0.84P PS=5.3U PD=2.84U
M$108 VDD VDD VDD VDD pfet_03v3 L=2U W=2U AS=0.84P AD=1.3P PS=2.84U PD=5.3U
M$109 VDD VDD VDD VDD pfet_03v3 L=2U W=2U AS=1.3P AD=0.84P PS=5.3U PD=2.84U
M$110 VDD VDD VDD VDD pfet_03v3 L=2U W=2U AS=0.84P AD=1.3P PS=2.84U PD=5.3U
M$111 VDD VDD VDD VDD pfet_03v3 L=2U W=2U AS=1.3P AD=0.84P PS=5.3U PD=2.84U
M$112 VDD VDD VDD VDD pfet_03v3 L=2U W=2U AS=0.84P AD=1.3P PS=2.84U PD=5.3U
M$113 VDD VDD VDD VDD pfet_03v3 L=2U W=2U AS=1.3P AD=0.84P PS=5.3U PD=2.84U
M$114 VDD VDD VDD VDD pfet_03v3 L=2U W=2U AS=0.84P AD=1.3P PS=2.84U PD=5.3U
M$115 VDD VDD VDD VDD pfet_03v3 L=2U W=2U AS=1.3P AD=0.84P PS=5.3U PD=2.84U
M$116 VDD VDD VDD VDD pfet_03v3 L=2U W=2U AS=0.84P AD=1.3P PS=2.84U PD=5.3U
M$117 VDD VDD VDD VDD pfet_03v3 L=2U W=2U AS=1.3P AD=0.84P PS=5.3U PD=2.84U
M$118 VDD VDD VDD VDD pfet_03v3 L=2U W=2U AS=0.84P AD=1.3P PS=2.84U PD=5.3U
M$119 VDD VDD VDD VDD pfet_03v3 L=2U W=2U AS=1.3P AD=0.84P PS=5.3U PD=2.84U
M$120 VDD VDD VDD VDD pfet_03v3 L=2U W=2U AS=0.84P AD=1.3P PS=2.84U PD=5.3U
M$121 VDD VDD VDD VDD pfet_03v3 L=2U W=2U AS=1.3P AD=0.84P PS=5.3U PD=2.84U
M$122 VDD VDD VDD VDD pfet_03v3 L=2U W=2U AS=0.84P AD=1.3P PS=2.84U PD=5.3U
M$123 \$893 \$147 \$147 VDD pfet_03v3 L=2U W=2U AS=1.3P AD=0.84P PS=5.3U
+ PD=2.84U
M$124 VDD \$147 \$893 VDD pfet_03v3 L=2U W=2U AS=0.84P AD=1.3P PS=2.84U PD=5.3U
M$125 \$894 \$147 VDD VDD pfet_03v3 L=2U W=2U AS=1.3P AD=0.84P PS=5.3U PD=2.84U
M$126 \$47 \$147 \$894 VDD pfet_03v3 L=2U W=2U AS=0.84P AD=1.3P PS=2.84U PD=5.3U
M$127 VDD VDD VDD VDD pfet_03v3 L=2U W=2U AS=1.3P AD=0.84P PS=5.3U PD=2.84U
M$128 VDD VDD VDD VDD pfet_03v3 L=2U W=2U AS=0.84P AD=1.3P PS=2.84U PD=5.3U
M$129 VDD VDD VDD VDD pfet_03v3 L=2U W=2U AS=1.3P AD=0.84P PS=5.3U PD=2.84U
M$130 VDD VDD VDD VDD pfet_03v3 L=2U W=2U AS=0.84P AD=1.3P PS=2.84U PD=5.3U
M$131 \$896 \$929 VA VDD pfet_03v3 L=2U W=2U AS=1.3P AD=0.84P PS=5.3U PD=2.84U
M$132 \$150 \$929 \$896 VDD pfet_03v3 L=2U W=2U AS=0.84P AD=1.3P PS=2.84U
+ PD=5.3U
M$133 \$897 \$929 \$258 VDD pfet_03v3 L=2U W=2U AS=1.3P AD=0.84P PS=5.3U
+ PD=2.84U
M$134 \$898 \$929 \$897 VDD pfet_03v3 L=2U W=2U AS=0.84P AD=1.3P PS=2.84U
+ PD=5.3U
M$135 VDD VDD VDD VDD pfet_03v3 L=2U W=2U AS=1.3P AD=0.84P PS=5.3U PD=2.84U
M$136 VDD VDD VDD VDD pfet_03v3 L=2U W=2U AS=0.84P AD=1.3P PS=2.84U PD=5.3U
M$137 VDD VDD VDD VDD pfet_03v3 L=2U W=2U AS=1.3P AD=0.84P PS=5.3U PD=2.84U
M$138 VDD VDD VDD VDD pfet_03v3 L=2U W=2U AS=0.84P AD=1.3P PS=2.84U PD=5.3U
M$139 \$899 \$187 \$188 VDD pfet_03v3 L=2U W=2U AS=1.3P AD=0.84P PS=5.3U
+ PD=2.84U
M$140 ITP1 \$187 \$899 VDD pfet_03v3 L=2U W=2U AS=0.84P AD=1.3P PS=2.84U PD=5.3U
M$141 \$900 IBP1 ITP1 VDD pfet_03v3 L=2U W=2U AS=1.3P AD=0.84P PS=5.3U PD=2.84U
M$142 \$929 IBP1 \$900 VDD pfet_03v3 L=2U W=2U AS=0.84P AD=1.3P PS=2.84U PD=5.3U
M$143 VDD VDD VDD VDD pfet_03v3 L=2U W=2U AS=1.3P AD=0.84P PS=5.3U PD=2.84U
M$144 VDD VDD VDD VDD pfet_03v3 L=2U W=2U AS=0.84P AD=1.3P PS=2.84U PD=5.3U
M$145 VDD VDD VDD VDD pfet_03v3 L=2U W=2U AS=1.3P AD=0.84P PS=5.3U PD=2.84U
M$146 VDD VDD VDD VDD pfet_03v3 L=2U W=2U AS=0.84P AD=1.3P PS=2.84U PD=5.3U
M$147 \$901 \$155 \$155 VDD pfet_03v3 L=2U W=2U AS=1.3P AD=0.84P PS=5.3U
+ PD=2.84U
M$148 VDD \$155 \$901 VDD pfet_03v3 L=2U W=2U AS=0.84P AD=1.3P PS=2.84U PD=5.3U
M$149 \$902 \$155 VDD VDD pfet_03v3 L=2U W=2U AS=1.3P AD=0.84P PS=5.3U PD=2.84U
M$150 \$48 \$155 \$902 VDD pfet_03v3 L=2U W=2U AS=0.84P AD=1.3P PS=2.84U PD=5.3U
M$151 VDD VDD VDD VDD pfet_03v3 L=2U W=2U AS=1.3P AD=0.84P PS=5.3U PD=2.84U
M$152 VDD VDD VDD VDD pfet_03v3 L=2U W=2U AS=0.84P AD=1.3P PS=2.84U PD=5.3U
M$153 VDD VDD VDD VDD pfet_03v3 L=2U W=2U AS=1.3P AD=0.84P PS=5.3U PD=2.84U
M$154 VDD VDD VDD VDD pfet_03v3 L=2U W=2U AS=0.84P AD=1.3P PS=2.84U PD=5.3U
M$155 \$903 \$930 \$898 VDD pfet_03v3 L=2U W=2U AS=1.3P AD=0.84P PS=5.3U
+ PD=2.84U
M$156 \$158 \$930 \$903 VDD pfet_03v3 L=2U W=2U AS=0.84P AD=1.3P PS=2.84U
+ PD=5.3U
M$157 \$904 \$930 \$260 VDD pfet_03v3 L=2U W=2U AS=1.3P AD=0.84P PS=5.3U
+ PD=2.84U
M$158 \$905 \$930 \$904 VDD pfet_03v3 L=2U W=2U AS=0.84P AD=1.3P PS=2.84U
+ PD=5.3U
M$159 VDD VDD VDD VDD pfet_03v3 L=2U W=2U AS=1.3P AD=0.84P PS=5.3U PD=2.84U
M$160 VDD VDD VDD VDD pfet_03v3 L=2U W=2U AS=0.84P AD=1.3P PS=2.84U PD=5.3U
M$161 VDD VDD VDD VDD pfet_03v3 L=2U W=2U AS=1.3P AD=0.84P PS=5.3U PD=2.84U
M$162 VDD VDD VDD VDD pfet_03v3 L=2U W=2U AS=0.84P AD=1.3P PS=2.84U PD=5.3U
M$163 \$906 \$189 \$190 VDD pfet_03v3 L=2U W=2U AS=1.3P AD=0.84P PS=5.3U
+ PD=2.84U
M$164 ITP2 \$189 \$906 VDD pfet_03v3 L=2U W=2U AS=0.84P AD=1.3P PS=2.84U PD=5.3U
M$165 \$907 IBP2 ITP2 VDD pfet_03v3 L=2U W=2U AS=1.3P AD=0.84P PS=5.3U PD=2.84U
M$166 \$930 IBP2 \$907 VDD pfet_03v3 L=2U W=2U AS=0.84P AD=1.3P PS=2.84U PD=5.3U
M$167 VDD VDD VDD VDD pfet_03v3 L=2U W=2U AS=1.3P AD=0.84P PS=5.3U PD=2.84U
M$168 VDD VDD VDD VDD pfet_03v3 L=2U W=2U AS=0.84P AD=1.3P PS=2.84U PD=5.3U
M$169 VDD VDD VDD VDD pfet_03v3 L=2U W=2U AS=1.3P AD=0.84P PS=5.3U PD=2.84U
M$170 VDD VDD VDD VDD pfet_03v3 L=2U W=2U AS=0.84P AD=1.3P PS=2.84U PD=5.3U
M$171 \$908 \$163 \$163 VDD pfet_03v3 L=2U W=2U AS=1.3P AD=0.84P PS=5.3U
+ PD=2.84U
M$172 VDD \$163 \$908 VDD pfet_03v3 L=2U W=2U AS=0.84P AD=1.3P PS=2.84U PD=5.3U
M$173 \$909 \$163 VDD VDD pfet_03v3 L=2U W=2U AS=1.3P AD=0.84P PS=5.3U PD=2.84U
M$174 \$49 \$163 \$909 VDD pfet_03v3 L=2U W=2U AS=0.84P AD=1.3P PS=2.84U PD=5.3U
M$175 VDD VDD VDD VDD pfet_03v3 L=2U W=2U AS=1.3P AD=0.84P PS=5.3U PD=2.84U
M$176 VDD VDD VDD VDD pfet_03v3 L=2U W=2U AS=0.84P AD=1.3P PS=2.84U PD=5.3U
M$177 VDD VDD VDD VDD pfet_03v3 L=2U W=2U AS=1.3P AD=0.84P PS=5.3U PD=2.84U
M$178 VDD VDD VDD VDD pfet_03v3 L=2U W=2U AS=0.84P AD=1.3P PS=2.84U PD=5.3U
M$179 \$910 \$931 \$905 VDD pfet_03v3 L=2U W=2U AS=1.3P AD=0.84P PS=5.3U
+ PD=2.84U
M$180 \$166 \$931 \$910 VDD pfet_03v3 L=2U W=2U AS=0.84P AD=1.3P PS=2.84U
+ PD=5.3U
M$181 \$911 \$931 \$262 VDD pfet_03v3 L=2U W=2U AS=1.3P AD=0.84P PS=5.3U
+ PD=2.84U
M$182 \$912 \$931 \$911 VDD pfet_03v3 L=2U W=2U AS=0.84P AD=1.3P PS=2.84U
+ PD=5.3U
M$183 VDD VDD VDD VDD pfet_03v3 L=2U W=2U AS=1.3P AD=0.84P PS=5.3U PD=2.84U
M$184 VDD VDD VDD VDD pfet_03v3 L=2U W=2U AS=0.84P AD=1.3P PS=2.84U PD=5.3U
M$185 VDD VDD VDD VDD pfet_03v3 L=2U W=2U AS=1.3P AD=0.84P PS=5.3U PD=2.84U
M$186 VDD VDD VDD VDD pfet_03v3 L=2U W=2U AS=0.84P AD=1.3P PS=2.84U PD=5.3U
M$187 \$913 \$191 \$192 VDD pfet_03v3 L=2U W=2U AS=1.3P AD=0.84P PS=5.3U
+ PD=2.84U
M$188 ITP3 \$191 \$913 VDD pfet_03v3 L=2U W=2U AS=0.84P AD=1.3P PS=2.84U PD=5.3U
M$189 \$914 IBP3 ITP3 VDD pfet_03v3 L=2U W=2U AS=1.3P AD=0.84P PS=5.3U PD=2.84U
M$190 \$931 IBP3 \$914 VDD pfet_03v3 L=2U W=2U AS=0.84P AD=1.3P PS=2.84U PD=5.3U
M$191 VDD VDD VDD VDD pfet_03v3 L=2U W=2U AS=1.3P AD=0.84P PS=5.3U PD=2.84U
M$192 VDD VDD VDD VDD pfet_03v3 L=2U W=2U AS=0.84P AD=1.3P PS=2.84U PD=5.3U
M$193 VDD VDD VDD VDD pfet_03v3 L=2U W=2U AS=1.3P AD=0.84P PS=5.3U PD=2.84U
M$194 VDD VDD VDD VDD pfet_03v3 L=2U W=2U AS=0.84P AD=1.3P PS=2.84U PD=5.3U
M$195 \$915 \$171 \$171 VDD pfet_03v3 L=2U W=2U AS=1.3P AD=0.84P PS=5.3U
+ PD=2.84U
M$196 VDD \$171 \$915 VDD pfet_03v3 L=2U W=2U AS=0.84P AD=1.3P PS=2.84U PD=5.3U
M$197 \$916 \$171 VDD VDD pfet_03v3 L=2U W=2U AS=1.3P AD=0.84P PS=5.3U PD=2.84U
M$198 \$50 \$171 \$916 VDD pfet_03v3 L=2U W=2U AS=0.84P AD=1.3P PS=2.84U PD=5.3U
M$199 VDD VDD VDD VDD pfet_03v3 L=2U W=2U AS=1.3P AD=0.84P PS=5.3U PD=2.84U
M$200 VDD VDD VDD VDD pfet_03v3 L=2U W=2U AS=0.84P AD=1.3P PS=2.84U PD=5.3U
M$201 VDD VDD VDD VDD pfet_03v3 L=2U W=2U AS=1.3P AD=0.84P PS=5.3U PD=2.84U
M$202 VDD VDD VDD VDD pfet_03v3 L=2U W=2U AS=0.84P AD=1.3P PS=2.84U PD=5.3U
M$203 \$917 \$932 \$912 VDD pfet_03v3 L=2U W=2U AS=1.3P AD=0.84P PS=5.3U
+ PD=2.84U
M$204 \$174 \$932 \$917 VDD pfet_03v3 L=2U W=2U AS=0.84P AD=1.3P PS=2.84U
+ PD=5.3U
M$205 \$918 \$932 \$264 VDD pfet_03v3 L=2U W=2U AS=1.3P AD=0.84P PS=5.3U
+ PD=2.84U
M$206 \$919 \$932 \$918 VDD pfet_03v3 L=2U W=2U AS=0.84P AD=1.3P PS=2.84U
+ PD=5.3U
M$207 VDD VDD VDD VDD pfet_03v3 L=2U W=2U AS=1.3P AD=0.84P PS=5.3U PD=2.84U
M$208 VDD VDD VDD VDD pfet_03v3 L=2U W=2U AS=0.84P AD=1.3P PS=2.84U PD=5.3U
M$209 VDD VDD VDD VDD pfet_03v3 L=2U W=2U AS=1.3P AD=0.84P PS=5.3U PD=2.84U
M$210 VDD VDD VDD VDD pfet_03v3 L=2U W=2U AS=0.84P AD=1.3P PS=2.84U PD=5.3U
M$211 \$920 \$193 \$194 VDD pfet_03v3 L=2U W=2U AS=1.3P AD=0.84P PS=5.3U
+ PD=2.84U
M$212 ITP4 \$193 \$920 VDD pfet_03v3 L=2U W=2U AS=0.84P AD=1.3P PS=2.84U PD=5.3U
M$213 \$921 IBP4 ITP4 VDD pfet_03v3 L=2U W=2U AS=1.3P AD=0.84P PS=5.3U PD=2.84U
M$214 \$932 IBP4 \$921 VDD pfet_03v3 L=2U W=2U AS=0.84P AD=1.3P PS=2.84U PD=5.3U
M$215 VDD VDD VDD VDD pfet_03v3 L=2U W=2U AS=1.3P AD=0.84P PS=5.3U PD=2.84U
M$216 VDD VDD VDD VDD pfet_03v3 L=2U W=2U AS=0.84P AD=1.3P PS=2.84U PD=5.3U
M$217 VDD VDD VDD VDD pfet_03v3 L=2U W=2U AS=1.3P AD=0.84P PS=5.3U PD=2.84U
M$218 VDD VDD VDD VDD pfet_03v3 L=2U W=2U AS=0.84P AD=1.3P PS=2.84U PD=5.3U
M$219 \$922 \$179 \$179 VDD pfet_03v3 L=2U W=2U AS=1.3P AD=0.84P PS=5.3U
+ PD=2.84U
M$220 VDD \$179 \$922 VDD pfet_03v3 L=2U W=2U AS=0.84P AD=1.3P PS=2.84U PD=5.3U
M$221 \$923 \$179 VDD VDD pfet_03v3 L=2U W=2U AS=1.3P AD=0.84P PS=5.3U PD=2.84U
M$222 \$51 \$179 \$923 VDD pfet_03v3 L=2U W=2U AS=0.84P AD=1.3P PS=2.84U PD=5.3U
M$223 VDD VDD VDD VDD pfet_03v3 L=2U W=2U AS=1.3P AD=0.84P PS=5.3U PD=2.84U
M$224 VDD VDD VDD VDD pfet_03v3 L=2U W=2U AS=0.84P AD=1.3P PS=2.84U PD=5.3U
M$225 VDD VDD VDD VDD pfet_03v3 L=2U W=2U AS=1.3P AD=0.84P PS=5.3U PD=2.84U
M$226 VDD VDD VDD VDD pfet_03v3 L=2U W=2U AS=0.84P AD=1.3P PS=2.84U PD=5.3U
M$227 \$924 \$933 \$919 VDD pfet_03v3 L=2U W=2U AS=1.3P AD=0.84P PS=5.3U
+ PD=2.84U
M$228 \$182 \$933 \$924 VDD pfet_03v3 L=2U W=2U AS=0.84P AD=1.3P PS=2.84U
+ PD=5.3U
M$229 \$925 \$933 \$266 VDD pfet_03v3 L=2U W=2U AS=1.3P AD=0.84P PS=5.3U
+ PD=2.84U
M$230 VB \$933 \$925 VDD pfet_03v3 L=2U W=2U AS=0.84P AD=1.3P PS=2.84U PD=5.3U
M$231 VDD VDD VDD VDD pfet_03v3 L=2U W=2U AS=1.3P AD=0.84P PS=5.3U PD=2.84U
M$232 VDD VDD VDD VDD pfet_03v3 L=2U W=2U AS=0.84P AD=1.3P PS=2.84U PD=5.3U
M$233 VDD VDD VDD VDD pfet_03v3 L=2U W=2U AS=1.3P AD=0.84P PS=5.3U PD=2.84U
M$234 VDD VDD VDD VDD pfet_03v3 L=2U W=2U AS=0.84P AD=1.3P PS=2.84U PD=5.3U
M$235 \$927 \$195 \$196 VDD pfet_03v3 L=2U W=2U AS=1.3P AD=0.84P PS=5.3U
+ PD=2.84U
M$236 ITP5 \$195 \$927 VDD pfet_03v3 L=2U W=2U AS=0.84P AD=1.3P PS=2.84U PD=5.3U
M$237 \$928 IBP5 ITP5 VDD pfet_03v3 L=2U W=2U AS=1.3P AD=0.84P PS=5.3U PD=2.84U
M$238 \$933 IBP5 \$928 VDD pfet_03v3 L=2U W=2U AS=0.84P AD=1.3P PS=2.84U PD=5.3U
M$239 VDD VDD VDD VDD pfet_03v3 L=2U W=2U AS=1.3P AD=0.84P PS=5.3U PD=2.84U
M$240 VDD VDD VDD VDD pfet_03v3 L=2U W=2U AS=0.84P AD=1.3P PS=2.84U PD=5.3U
M$241 VDD VDD VDD VDD pfet_03v3 L=2U W=2U AS=1.3P AD=0.84P PS=5.3U PD=2.84U
M$242 VDD VDD VDD VDD pfet_03v3 L=2U W=2U AS=0.84P AD=1.3P PS=2.84U PD=5.3U
M$243 \$1054 \$147 \$47 VDD pfet_03v3 L=2U W=2U AS=1.3P AD=0.84P PS=5.3U
+ PD=2.84U
M$244 VDD \$147 \$1054 VDD pfet_03v3 L=2U W=2U AS=0.84P AD=1.3P PS=2.84U PD=5.3U
M$245 \$1055 \$147 VDD VDD pfet_03v3 L=2U W=2U AS=1.3P AD=0.84P PS=5.3U PD=2.84U
M$246 \$147 \$147 \$1055 VDD pfet_03v3 L=2U W=2U AS=0.84P AD=1.3P PS=2.84U
+ PD=5.3U
M$247 VDD VDD VDD VDD pfet_03v3 L=2U W=2U AS=1.3P AD=0.84P PS=5.3U PD=2.84U
M$248 VDD VDD VDD VDD pfet_03v3 L=2U W=2U AS=0.84P AD=1.3P PS=2.84U PD=5.3U
M$249 VDD VDD VDD VDD pfet_03v3 L=2U W=2U AS=1.3P AD=0.84P PS=5.3U PD=2.84U
M$250 VDD VDD VDD VDD pfet_03v3 L=2U W=2U AS=0.84P AD=1.3P PS=2.84U PD=5.3U
M$251 \$1056 \$929 IBP1 VDD pfet_03v3 L=2U W=2U AS=1.3P AD=0.84P PS=5.3U
+ PD=2.84U
M$252 VSS \$929 \$1056 VDD pfet_03v3 L=2U W=2U AS=0.84P AD=1.3P PS=2.84U PD=5.3U
M$253 \$1057 \$929 VSS VDD pfet_03v3 L=2U W=2U AS=1.3P AD=0.84P PS=5.3U PD=2.84U
M$254 IBP1 \$929 \$1057 VDD pfet_03v3 L=2U W=2U AS=0.84P AD=1.3P PS=2.84U
+ PD=5.3U
M$255 VDD VDD VDD VDD pfet_03v3 L=2U W=2U AS=1.3P AD=0.84P PS=5.3U PD=2.84U
M$256 VDD VDD VDD VDD pfet_03v3 L=2U W=2U AS=0.84P AD=1.3P PS=2.84U PD=5.3U
M$257 VDD VDD VDD VDD pfet_03v3 L=2U W=2U AS=1.3P AD=0.84P PS=5.3U PD=2.84U
M$258 VDD VDD VDD VDD pfet_03v3 L=2U W=2U AS=0.84P AD=1.3P PS=2.84U PD=5.3U
M$259 \$1058 IBP1 \$929 VDD pfet_03v3 L=2U W=2U AS=1.3P AD=0.84P PS=5.3U
+ PD=2.84U
M$260 ITP1 IBP1 \$1058 VDD pfet_03v3 L=2U W=2U AS=0.84P AD=1.3P PS=2.84U PD=5.3U
M$261 \$1059 \$187 ITP1 VDD pfet_03v3 L=2U W=2U AS=1.3P AD=0.84P PS=5.3U
+ PD=2.84U
M$262 \$188 \$187 \$1059 VDD pfet_03v3 L=2U W=2U AS=0.84P AD=1.3P PS=2.84U
+ PD=5.3U
M$263 VDD VDD VDD VDD pfet_03v3 L=2U W=2U AS=1.3P AD=0.84P PS=5.3U PD=2.84U
M$264 VDD VDD VDD VDD pfet_03v3 L=2U W=2U AS=0.84P AD=1.3P PS=2.84U PD=5.3U
M$265 VDD VDD VDD VDD pfet_03v3 L=2U W=2U AS=1.3P AD=0.84P PS=5.3U PD=2.84U
M$266 VDD VDD VDD VDD pfet_03v3 L=2U W=2U AS=0.84P AD=1.3P PS=2.84U PD=5.3U
M$267 \$1060 \$155 \$48 VDD pfet_03v3 L=2U W=2U AS=1.3P AD=0.84P PS=5.3U
+ PD=2.84U
M$268 VDD \$155 \$1060 VDD pfet_03v3 L=2U W=2U AS=0.84P AD=1.3P PS=2.84U PD=5.3U
M$269 \$1061 \$155 VDD VDD pfet_03v3 L=2U W=2U AS=1.3P AD=0.84P PS=5.3U PD=2.84U
M$270 \$155 \$155 \$1061 VDD pfet_03v3 L=2U W=2U AS=0.84P AD=1.3P PS=2.84U
+ PD=5.3U
M$271 VDD VDD VDD VDD pfet_03v3 L=2U W=2U AS=1.3P AD=0.84P PS=5.3U PD=2.84U
M$272 VDD VDD VDD VDD pfet_03v3 L=2U W=2U AS=0.84P AD=1.3P PS=2.84U PD=5.3U
M$273 VDD VDD VDD VDD pfet_03v3 L=2U W=2U AS=1.3P AD=0.84P PS=5.3U PD=2.84U
M$274 VDD VDD VDD VDD pfet_03v3 L=2U W=2U AS=0.84P AD=1.3P PS=2.84U PD=5.3U
M$275 \$1062 \$930 IBP2 VDD pfet_03v3 L=2U W=2U AS=1.3P AD=0.84P PS=5.3U
+ PD=2.84U
M$276 VSS \$930 \$1062 VDD pfet_03v3 L=2U W=2U AS=0.84P AD=1.3P PS=2.84U PD=5.3U
M$277 \$1063 \$930 VSS VDD pfet_03v3 L=2U W=2U AS=1.3P AD=0.84P PS=5.3U PD=2.84U
M$278 IBP2 \$930 \$1063 VDD pfet_03v3 L=2U W=2U AS=0.84P AD=1.3P PS=2.84U
+ PD=5.3U
M$279 VDD VDD VDD VDD pfet_03v3 L=2U W=2U AS=1.3P AD=0.84P PS=5.3U PD=2.84U
M$280 VDD VDD VDD VDD pfet_03v3 L=2U W=2U AS=0.84P AD=1.3P PS=2.84U PD=5.3U
M$281 VDD VDD VDD VDD pfet_03v3 L=2U W=2U AS=1.3P AD=0.84P PS=5.3U PD=2.84U
M$282 VDD VDD VDD VDD pfet_03v3 L=2U W=2U AS=0.84P AD=1.3P PS=2.84U PD=5.3U
M$283 \$1064 IBP2 \$930 VDD pfet_03v3 L=2U W=2U AS=1.3P AD=0.84P PS=5.3U
+ PD=2.84U
M$284 ITP2 IBP2 \$1064 VDD pfet_03v3 L=2U W=2U AS=0.84P AD=1.3P PS=2.84U PD=5.3U
M$285 \$1065 \$189 ITP2 VDD pfet_03v3 L=2U W=2U AS=1.3P AD=0.84P PS=5.3U
+ PD=2.84U
M$286 \$190 \$189 \$1065 VDD pfet_03v3 L=2U W=2U AS=0.84P AD=1.3P PS=2.84U
+ PD=5.3U
M$287 VDD VDD VDD VDD pfet_03v3 L=2U W=2U AS=1.3P AD=0.84P PS=5.3U PD=2.84U
M$288 VDD VDD VDD VDD pfet_03v3 L=2U W=2U AS=0.84P AD=1.3P PS=2.84U PD=5.3U
M$289 VDD VDD VDD VDD pfet_03v3 L=2U W=2U AS=1.3P AD=0.84P PS=5.3U PD=2.84U
M$290 VDD VDD VDD VDD pfet_03v3 L=2U W=2U AS=0.84P AD=1.3P PS=2.84U PD=5.3U
M$291 \$1066 \$163 \$49 VDD pfet_03v3 L=2U W=2U AS=1.3P AD=0.84P PS=5.3U
+ PD=2.84U
M$292 VDD \$163 \$1066 VDD pfet_03v3 L=2U W=2U AS=0.84P AD=1.3P PS=2.84U PD=5.3U
M$293 \$1067 \$163 VDD VDD pfet_03v3 L=2U W=2U AS=1.3P AD=0.84P PS=5.3U PD=2.84U
M$294 \$163 \$163 \$1067 VDD pfet_03v3 L=2U W=2U AS=0.84P AD=1.3P PS=2.84U
+ PD=5.3U
M$295 VDD VDD VDD VDD pfet_03v3 L=2U W=2U AS=1.3P AD=0.84P PS=5.3U PD=2.84U
M$296 VDD VDD VDD VDD pfet_03v3 L=2U W=2U AS=0.84P AD=1.3P PS=2.84U PD=5.3U
M$297 VDD VDD VDD VDD pfet_03v3 L=2U W=2U AS=1.3P AD=0.84P PS=5.3U PD=2.84U
M$298 VDD VDD VDD VDD pfet_03v3 L=2U W=2U AS=0.84P AD=1.3P PS=2.84U PD=5.3U
M$299 \$1068 \$931 IBP3 VDD pfet_03v3 L=2U W=2U AS=1.3P AD=0.84P PS=5.3U
+ PD=2.84U
M$300 VSS \$931 \$1068 VDD pfet_03v3 L=2U W=2U AS=0.84P AD=1.3P PS=2.84U PD=5.3U
M$301 \$1069 \$931 VSS VDD pfet_03v3 L=2U W=2U AS=1.3P AD=0.84P PS=5.3U PD=2.84U
M$302 IBP3 \$931 \$1069 VDD pfet_03v3 L=2U W=2U AS=0.84P AD=1.3P PS=2.84U
+ PD=5.3U
M$303 VDD VDD VDD VDD pfet_03v3 L=2U W=2U AS=1.3P AD=0.84P PS=5.3U PD=2.84U
M$304 VDD VDD VDD VDD pfet_03v3 L=2U W=2U AS=0.84P AD=1.3P PS=2.84U PD=5.3U
M$305 VDD VDD VDD VDD pfet_03v3 L=2U W=2U AS=1.3P AD=0.84P PS=5.3U PD=2.84U
M$306 VDD VDD VDD VDD pfet_03v3 L=2U W=2U AS=0.84P AD=1.3P PS=2.84U PD=5.3U
M$307 \$1070 IBP3 \$931 VDD pfet_03v3 L=2U W=2U AS=1.3P AD=0.84P PS=5.3U
+ PD=2.84U
M$308 ITP3 IBP3 \$1070 VDD pfet_03v3 L=2U W=2U AS=0.84P AD=1.3P PS=2.84U PD=5.3U
M$309 \$1071 \$191 ITP3 VDD pfet_03v3 L=2U W=2U AS=1.3P AD=0.84P PS=5.3U
+ PD=2.84U
M$310 \$192 \$191 \$1071 VDD pfet_03v3 L=2U W=2U AS=0.84P AD=1.3P PS=2.84U
+ PD=5.3U
M$311 VDD VDD VDD VDD pfet_03v3 L=2U W=2U AS=1.3P AD=0.84P PS=5.3U PD=2.84U
M$312 VDD VDD VDD VDD pfet_03v3 L=2U W=2U AS=0.84P AD=1.3P PS=2.84U PD=5.3U
M$313 VDD VDD VDD VDD pfet_03v3 L=2U W=2U AS=1.3P AD=0.84P PS=5.3U PD=2.84U
M$314 VDD VDD VDD VDD pfet_03v3 L=2U W=2U AS=0.84P AD=1.3P PS=2.84U PD=5.3U
M$315 \$1072 \$171 \$50 VDD pfet_03v3 L=2U W=2U AS=1.3P AD=0.84P PS=5.3U
+ PD=2.84U
M$316 VDD \$171 \$1072 VDD pfet_03v3 L=2U W=2U AS=0.84P AD=1.3P PS=2.84U PD=5.3U
M$317 \$1073 \$171 VDD VDD pfet_03v3 L=2U W=2U AS=1.3P AD=0.84P PS=5.3U PD=2.84U
M$318 \$171 \$171 \$1073 VDD pfet_03v3 L=2U W=2U AS=0.84P AD=1.3P PS=2.84U
+ PD=5.3U
M$319 VDD VDD VDD VDD pfet_03v3 L=2U W=2U AS=1.3P AD=0.84P PS=5.3U PD=2.84U
M$320 VDD VDD VDD VDD pfet_03v3 L=2U W=2U AS=0.84P AD=1.3P PS=2.84U PD=5.3U
M$321 VDD VDD VDD VDD pfet_03v3 L=2U W=2U AS=1.3P AD=0.84P PS=5.3U PD=2.84U
M$322 VDD VDD VDD VDD pfet_03v3 L=2U W=2U AS=0.84P AD=1.3P PS=2.84U PD=5.3U
M$323 \$1074 \$932 IBP4 VDD pfet_03v3 L=2U W=2U AS=1.3P AD=0.84P PS=5.3U
+ PD=2.84U
M$324 VSS \$932 \$1074 VDD pfet_03v3 L=2U W=2U AS=0.84P AD=1.3P PS=2.84U PD=5.3U
M$325 \$1075 \$932 VSS VDD pfet_03v3 L=2U W=2U AS=1.3P AD=0.84P PS=5.3U PD=2.84U
M$326 IBP4 \$932 \$1075 VDD pfet_03v3 L=2U W=2U AS=0.84P AD=1.3P PS=2.84U
+ PD=5.3U
M$327 VDD VDD VDD VDD pfet_03v3 L=2U W=2U AS=1.3P AD=0.84P PS=5.3U PD=2.84U
M$328 VDD VDD VDD VDD pfet_03v3 L=2U W=2U AS=0.84P AD=1.3P PS=2.84U PD=5.3U
M$329 VDD VDD VDD VDD pfet_03v3 L=2U W=2U AS=1.3P AD=0.84P PS=5.3U PD=2.84U
M$330 VDD VDD VDD VDD pfet_03v3 L=2U W=2U AS=0.84P AD=1.3P PS=2.84U PD=5.3U
M$331 \$1076 IBP4 \$932 VDD pfet_03v3 L=2U W=2U AS=1.3P AD=0.84P PS=5.3U
+ PD=2.84U
M$332 ITP4 IBP4 \$1076 VDD pfet_03v3 L=2U W=2U AS=0.84P AD=1.3P PS=2.84U PD=5.3U
M$333 \$1077 \$193 ITP4 VDD pfet_03v3 L=2U W=2U AS=1.3P AD=0.84P PS=5.3U
+ PD=2.84U
M$334 \$194 \$193 \$1077 VDD pfet_03v3 L=2U W=2U AS=0.84P AD=1.3P PS=2.84U
+ PD=5.3U
M$335 VDD VDD VDD VDD pfet_03v3 L=2U W=2U AS=1.3P AD=0.84P PS=5.3U PD=2.84U
M$336 VDD VDD VDD VDD pfet_03v3 L=2U W=2U AS=0.84P AD=1.3P PS=2.84U PD=5.3U
M$337 VDD VDD VDD VDD pfet_03v3 L=2U W=2U AS=1.3P AD=0.84P PS=5.3U PD=2.84U
M$338 VDD VDD VDD VDD pfet_03v3 L=2U W=2U AS=0.84P AD=1.3P PS=2.84U PD=5.3U
M$339 \$1078 \$179 \$51 VDD pfet_03v3 L=2U W=2U AS=1.3P AD=0.84P PS=5.3U
+ PD=2.84U
M$340 VDD \$179 \$1078 VDD pfet_03v3 L=2U W=2U AS=0.84P AD=1.3P PS=2.84U PD=5.3U
M$341 \$1079 \$179 VDD VDD pfet_03v3 L=2U W=2U AS=1.3P AD=0.84P PS=5.3U PD=2.84U
M$342 \$179 \$179 \$1079 VDD pfet_03v3 L=2U W=2U AS=0.84P AD=1.3P PS=2.84U
+ PD=5.3U
M$343 VDD VDD VDD VDD pfet_03v3 L=2U W=2U AS=1.3P AD=0.84P PS=5.3U PD=2.84U
M$344 VDD VDD VDD VDD pfet_03v3 L=2U W=2U AS=0.84P AD=1.3P PS=2.84U PD=5.3U
M$345 VDD VDD VDD VDD pfet_03v3 L=2U W=2U AS=1.3P AD=0.84P PS=5.3U PD=2.84U
M$346 VDD VDD VDD VDD pfet_03v3 L=2U W=2U AS=0.84P AD=1.3P PS=2.84U PD=5.3U
M$347 \$1080 \$933 IBP5 VDD pfet_03v3 L=2U W=2U AS=1.3P AD=0.84P PS=5.3U
+ PD=2.84U
M$348 VSS \$933 \$1080 VDD pfet_03v3 L=2U W=2U AS=0.84P AD=1.3P PS=2.84U PD=5.3U
M$349 \$1081 \$933 VSS VDD pfet_03v3 L=2U W=2U AS=1.3P AD=0.84P PS=5.3U PD=2.84U
M$350 IBP5 \$933 \$1081 VDD pfet_03v3 L=2U W=2U AS=0.84P AD=1.3P PS=2.84U
+ PD=5.3U
M$351 VDD VDD VDD VDD pfet_03v3 L=2U W=2U AS=1.3P AD=0.84P PS=5.3U PD=2.84U
M$352 VDD VDD VDD VDD pfet_03v3 L=2U W=2U AS=0.84P AD=1.3P PS=2.84U PD=5.3U
M$353 VDD VDD VDD VDD pfet_03v3 L=2U W=2U AS=1.3P AD=0.84P PS=5.3U PD=2.84U
M$354 VDD VDD VDD VDD pfet_03v3 L=2U W=2U AS=0.84P AD=1.3P PS=2.84U PD=5.3U
M$355 \$1082 IBP5 \$933 VDD pfet_03v3 L=2U W=2U AS=1.3P AD=0.84P PS=5.3U
+ PD=2.84U
M$356 ITP5 IBP5 \$1082 VDD pfet_03v3 L=2U W=2U AS=0.84P AD=1.3P PS=2.84U PD=5.3U
M$357 \$1083 \$195 ITP5 VDD pfet_03v3 L=2U W=2U AS=1.3P AD=0.84P PS=5.3U
+ PD=2.84U
M$358 \$196 \$195 \$1083 VDD pfet_03v3 L=2U W=2U AS=0.84P AD=1.3P PS=2.84U
+ PD=5.3U
M$359 VDD VDD VDD VDD pfet_03v3 L=2U W=2U AS=1.3P AD=0.84P PS=5.3U PD=2.84U
M$360 VDD VDD VDD VDD pfet_03v3 L=2U W=2U AS=0.84P AD=1.3P PS=2.84U PD=5.3U
M$361 VDD VDD VDD VDD pfet_03v3 L=2U W=2U AS=1.3P AD=0.84P PS=5.3U PD=2.84U
M$362 VDD VDD VDD VDD pfet_03v3 L=2U W=2U AS=0.84P AD=1.3P PS=2.84U PD=5.3U
M$363 \$1189 \$147 \$147 VDD pfet_03v3 L=2U W=2U AS=1.3P AD=0.84P PS=5.3U
+ PD=2.84U
M$364 VDD \$147 \$1189 VDD pfet_03v3 L=2U W=2U AS=0.84P AD=1.3P PS=2.84U PD=5.3U
M$365 \$1190 \$147 VDD VDD pfet_03v3 L=2U W=2U AS=1.3P AD=0.84P PS=5.3U PD=2.84U
M$366 \$47 \$147 \$1190 VDD pfet_03v3 L=2U W=2U AS=0.84P AD=1.3P PS=2.84U
+ PD=5.3U
M$367 VDD VDD VDD VDD pfet_03v3 L=2U W=2U AS=1.3P AD=0.84P PS=5.3U PD=2.84U
M$368 VDD VDD VDD VDD pfet_03v3 L=2U W=2U AS=0.84P AD=1.3P PS=2.84U PD=5.3U
M$369 VDD VDD VDD VDD pfet_03v3 L=2U W=2U AS=1.3P AD=0.84P PS=5.3U PD=2.84U
M$370 VDD VDD VDD VDD pfet_03v3 L=2U W=2U AS=0.84P AD=1.3P PS=2.84U PD=5.3U
M$371 \$1191 \$929 IBP1 VDD pfet_03v3 L=2U W=2U AS=1.3P AD=0.84P PS=5.3U
+ PD=2.84U
M$372 VSS \$929 \$1191 VDD pfet_03v3 L=2U W=2U AS=0.84P AD=1.3P PS=2.84U PD=5.3U
M$373 \$1192 \$929 VSS VDD pfet_03v3 L=2U W=2U AS=1.3P AD=0.84P PS=5.3U PD=2.84U
M$374 IBP1 \$929 \$1192 VDD pfet_03v3 L=2U W=2U AS=0.84P AD=1.3P PS=2.84U
+ PD=5.3U
M$375 VDD VDD VDD VDD pfet_03v3 L=2U W=2U AS=1.3P AD=0.84P PS=5.3U PD=2.84U
M$376 VDD VDD VDD VDD pfet_03v3 L=2U W=2U AS=0.84P AD=1.3P PS=2.84U PD=5.3U
M$377 VDD VDD VDD VDD pfet_03v3 L=2U W=2U AS=1.3P AD=0.84P PS=5.3U PD=2.84U
M$378 VDD VDD VDD VDD pfet_03v3 L=2U W=2U AS=0.84P AD=1.3P PS=2.84U PD=5.3U
M$379 \$1193 \$187 \$188 VDD pfet_03v3 L=2U W=2U AS=1.3P AD=0.84P PS=5.3U
+ PD=2.84U
M$380 ITP1 \$187 \$1193 VDD pfet_03v3 L=2U W=2U AS=0.84P AD=1.3P PS=2.84U
+ PD=5.3U
M$381 \$1194 IBP1 ITP1 VDD pfet_03v3 L=2U W=2U AS=1.3P AD=0.84P PS=5.3U PD=2.84U
M$382 \$929 IBP1 \$1194 VDD pfet_03v3 L=2U W=2U AS=0.84P AD=1.3P PS=2.84U
+ PD=5.3U