* NGSPICE file created from FC_top.ext - technology: gf180mcuD

.subckt FC_top VP VN VOUT IREF AVSS AVDD
X0 AVDD.t1280 AVDD.t1279 AVDD.t1280 AVDD.t177 pfet_03v3 ad=0.84p pd=2.84u as=0 ps=0 w=2u l=2u
X1 AVSS.t282 AVSS.t281 AVSS.t282 AVSS.t46 nfet_03v3 ad=1.22p pd=5.22u as=0 ps=0 w=2u l=2u
X2 AVDD a_5396_n6451.t106 a_5396_8177.t87 AVDD.t147 pfet_03v3 ad=0.84p pd=2.84u as=0.84p ps=2.84u w=2u l=2u
X3 AVDD IREF.t45 a_n13990_8177.t267 AVDD.t53 pfet_03v3 ad=0.84p pd=2.84u as=0.84p ps=2.84u w=2u l=2u
X4 AVDD.t1278 AVDD.t1277 AVDD.t1278 AVDD.t110 pfet_03v3 ad=0.84p pd=2.84u as=0 ps=0 w=2u l=2u
X5 AVDD.t1276 AVDD.t1275 AVDD.t1276 AVDD.t373 pfet_03v3 ad=0.78p pd=3.7u as=0 ps=0 w=1.2u l=2u
X6 AVDD IREF.t46 a_n13990_8177.t266 AVDD.t33 pfet_03v3 ad=0.84p pd=2.84u as=1.3p ps=5.3u w=2u l=2u
X7 AVDD IREF.t47 a_n13990_8177.t265 AVDD.t140 pfet_03v3 ad=0.84p pd=2.84u as=0.84p ps=2.84u w=2u l=2u
X8 VOUT a_n11317_n20927.t1 a_5396_9163.t131 AVDD.t200 pfet_03v3 ad=1.3p pd=5.3u as=0.84p ps=2.84u w=2u l=2u
X9 AVDD IREF.t48 a_n13990_8177.t264 AVDD.t152 pfet_03v3 ad=0.84p pd=2.84u as=1.3p ps=5.3u w=2u l=2u
X10 AVDD.t1274 AVDD.t1273 AVDD.t1274 AVDD.t121 pfet_03v3 ad=0.84p pd=2.84u as=0 ps=0 w=2u l=2u
X11 AVDD IREF.t49 a_n13990_8177.t263 AVDD.t152 pfet_03v3 ad=0.84p pd=2.84u as=1.3p ps=5.3u w=2u l=2u
X12 AVDD.t1272 AVDD.t1271 AVDD.t1272 AVDD.t67 pfet_03v3 ad=1.3p pd=5.3u as=0 ps=0 w=2u l=2u
X13 AVDD.t1270 AVDD.t1269 AVDD.t1270 AVDD.t121 pfet_03v3 ad=0.84p pd=2.84u as=0 ps=0 w=2u l=2u
X14 AVDD.t1268 AVDD.t1267 AVDD.t1268 AVDD.t291 pfet_03v3 ad=0.84p pd=2.84u as=0 ps=0 w=2u l=2u
X15 AVDD.t1266 AVDD.t1265 AVDD.t1266 AVDD.t110 pfet_03v3 ad=0.84p pd=2.84u as=0 ps=0 w=2u l=2u
X16 AVSS.t280 AVSS.t279 AVSS.t280 AVSS.t77 nfet_03v3 ad=1.22p pd=5.22u as=0 ps=0 w=2u l=2u
X17 AVDD a_5396_n6451.t108 a_5396_9163.t87 AVDD.t226 pfet_03v3 ad=0.84p pd=2.84u as=1.3p ps=5.3u w=2u l=2u
X18 AVDD.t1264 AVDD.t1263 AVDD.t1264 AVDD.t399 pfet_03v3 ad=0.84p pd=2.84u as=0 ps=0 w=2u l=2u
X19 AVDD.t1262 AVDD.t1261 AVDD.t1262 AVDD.t62 pfet_03v3 ad=1.3p pd=5.3u as=0 ps=0 w=2u l=2u
X20 AVDD IREF.t42 IREF.t43 AVDD.t555 pfet_03v3 ad=0.84p pd=2.84u as=0.84p ps=2.84u w=2u l=2u
X21 AVDD.t1260 AVDD.t1259 AVDD.t1260 AVDD.t53 pfet_03v3 ad=0.84p pd=2.84u as=0 ps=0 w=2u l=2u
X22 AVDD a_5396_n6451.t111 a_5396_9163.t84 AVDD.t22 pfet_03v3 ad=0.84p pd=2.84u as=1.3p ps=5.3u w=2u l=2u
X23 AVDD IREF.t53 a_n13990_8177.t260 AVDD.t33 pfet_03v3 ad=0.84p pd=2.84u as=1.3p ps=5.3u w=2u l=2u
X24 VOUT a_n11317_n20927.t1 a_5396_9163.t130 AVDD.t87 pfet_03v3 ad=0.84p pd=2.84u as=0.84p ps=2.84u w=2u l=2u
X25 AVDD.t1258 AVDD.t1257 AVDD.t1258 AVDD.t79 pfet_03v3 ad=1.3p pd=5.3u as=0 ps=0 w=2u l=2u
X26 AVSS.t278 AVSS.t277 AVSS.t278 AVSS.t4 nfet_03v3 ad=0.732p pd=3.62u as=0 ps=0 w=1.2u l=2u
X27 AVSS.t276 AVSS.t275 AVSS.t276 AVSS.t52 nfet_03v3 ad=1.22p pd=5.22u as=0 ps=0 w=2u l=2u
X28 AVDD IREF.t55 a_n11737_n14973.t29 AVDD.t810 pfet_03v3 ad=0.84p pd=2.84u as=1.3p ps=5.3u w=2u l=2u
X29 AVDD.t1256 AVDD.t1255 AVDD.t1256 AVDD.t67 pfet_03v3 ad=1.3p pd=5.3u as=0 ps=0 w=2u l=2u
X30 AVDD.t1254 AVDD.t1253 AVDD.t1254 AVDD.t381 pfet_03v3 ad=0.84p pd=2.84u as=0 ps=0 w=2u l=2u
X31 AVDD.t1252 AVDD.t1251 AVDD.t1252 AVDD.t875 pfet_03v3 ad=0.84p pd=2.84u as=0 ps=0 w=2u l=2u
X32 AVSS a_n11737_n14973.t30 a_n13990_n5465.t139 AVSS.t85 nfet_03v3 ad=0.8p pd=2.8u as=1.22p ps=5.22u w=2u l=2u
X33 AVDD.t1250 AVDD.t1249 AVDD.t1250 AVDD.t8 pfet_03v3 ad=1.3p pd=5.3u as=0 ps=0 w=2u l=2u
X34 AVDD.t1248 AVDD.t1247 AVDD.t1248 AVDD.t378 pfet_03v3 ad=0.84p pd=2.84u as=0 ps=0 w=2u l=2u
X35 AVSS.t274 AVSS.t273 AVSS.t274 AVSS.t58 nfet_03v3 ad=1.22p pd=5.22u as=0 ps=0 w=2u l=2u
X36 a_n1533_n15598# a_n11317_n20927.t4 a_n2101_n15598# AVDD.t394 pfet_03v3 ad=0.504p pd=2.04u as=0.504p ps=2.04u w=1.2u l=2u
X37 AVDD a_5396_n6451.t114 a_5396_9163.t83 AVDD.t241 pfet_03v3 ad=0.84p pd=2.84u as=1.3p ps=5.3u w=2u l=2u
X38 AVDD.t1246 AVDD.t1245 AVDD.t1246 AVDD.t62 pfet_03v3 ad=1.3p pd=5.3u as=0 ps=0 w=2u l=2u
X39 VOUT a_n11317_n20927.t1 a_5396_9163.t129 AVDD.t177 pfet_03v3 ad=1.3p pd=5.3u as=0.84p ps=2.84u w=2u l=2u
X40 AVDD.t1244 AVDD.t1243 AVDD.t1244 AVDD.t255 pfet_03v3 ad=0.84p pd=2.84u as=0 ps=0 w=2u l=2u
X41 AVDD IREF.t57 a_n11737_n15980.t20 AVDD.t810 pfet_03v3 ad=0.84p pd=2.84u as=1.3p ps=5.3u w=2u l=2u
X42 AVDD.t1242 AVDD.t1241 AVDD.t1242 AVDD.t53 pfet_03v3 ad=0.84p pd=2.84u as=0 ps=0 w=2u l=2u
X43 AVDD IREF.t59 a_n13990_8177.t257 AVDD.t82 pfet_03v3 ad=0.84p pd=2.84u as=1.3p ps=5.3u w=2u l=2u
X44 AVSS.t272 AVSS.t271 AVSS.t272 AVSS.t28 nfet_03v3 ad=1.22p pd=5.22u as=0 ps=0 w=2u l=2u
X45 AVDD.t1240 AVDD.t1239 AVDD.t1240 AVDD.t233 pfet_03v3 ad=1.3p pd=5.3u as=0 ps=0 w=2u l=2u
X46 VOUT a_n11317_n20927.t1 a_5396_9163.t128 AVDD.t177 pfet_03v3 ad=1.3p pd=5.3u as=0.84p ps=2.84u w=2u l=2u
X47 AVDD.t1238 AVDD.t1237 AVDD.t1238 AVDD.t56 pfet_03v3 ad=1.3p pd=5.3u as=0 ps=0 w=2u l=2u
X48 AVDD.t1236 AVDD.t1235 AVDD.t1236 AVDD.t8 pfet_03v3 ad=1.3p pd=5.3u as=0 ps=0 w=2u l=2u
X49 AVDD a_5396_n6451.t115 a_5396_8177.t83 AVDD.t87 pfet_03v3 ad=0.84p pd=2.84u as=0.84p ps=2.84u w=2u l=2u
X50 AVDD.t1234 AVDD.t1233 AVDD.t1234 AVDD.t87 pfet_03v3 ad=0.84p pd=2.84u as=0 ps=0 w=2u l=2u
X51 AVDD.t1232 AVDD.t1231 AVDD.t1232 AVDD.t0 pfet_03v3 ad=0.84p pd=2.84u as=0 ps=0 w=2u l=2u
X52 AVDD a_5396_n6451.t117 a_5396_9163.t82 AVDD.t59 pfet_03v3 ad=0.84p pd=2.84u as=1.3p ps=5.3u w=2u l=2u
X53 AVDD.t1230 AVDD.t1229 AVDD.t1230 AVDD.t347 pfet_03v3 ad=1.3p pd=5.3u as=0 ps=0 w=2u l=2u
X54 AVDD a_5396_n6451.t118 a_5396_9163.t81 AVDD.t381 pfet_03v3 ad=1.3p pd=5.3u as=0.84p ps=2.84u w=2u l=2u
X55 AVDD.t1228 AVDD.t1227 AVDD.t1228 AVDD.t97 pfet_03v3 ad=0.84p pd=2.84u as=0 ps=0 w=2u l=2u
X56 AVDD.t1226 AVDD.t1225 AVDD.t1226 AVDD.t70 pfet_03v3 ad=1.3p pd=5.3u as=0 ps=0 w=2u l=2u
X57 AVDD IREF.t61 a_n13990_8177.t255 AVDD.t255 pfet_03v3 ad=0.84p pd=2.84u as=0.84p ps=2.84u w=2u l=2u
X58 AVDD IREF.t62 a_n13990_8177.t254 AVDD.t233 pfet_03v3 ad=0.84p pd=2.84u as=1.3p ps=5.3u w=2u l=2u
X59 AVDD.t1224 AVDD.t1223 AVDD.t1224 AVDD.t347 pfet_03v3 ad=1.3p pd=5.3u as=0 ps=0 w=2u l=2u
X60 AVDD.t1222 AVDD.t1221 AVDD.t1222 AVDD.t366 pfet_03v3 ad=0.84p pd=2.84u as=0 ps=0 w=2u l=2u
X61 AVSS.t270 AVSS.t269 AVSS.t270 AVSS.t43 nfet_03v3 ad=0.8p pd=2.8u as=0 ps=0 w=2u l=2u
X62 AVDD.t1220 AVDD.t1219 AVDD.t1220 AVDD.t79 pfet_03v3 ad=1.3p pd=5.3u as=0 ps=0 w=2u l=2u
X63 AVDD.t1218 AVDD.t1217 AVDD.t1218 AVDD.t338 pfet_03v3 ad=0.84p pd=2.84u as=0 ps=0 w=2u l=2u
X64 a_n1533_n16323# a_n11317_n20927.t1 a_n2101_n16323# AVDD.t394 pfet_03v3 ad=0.504p pd=2.04u as=0.504p ps=2.04u w=1.2u l=2u
X65 AVSS.t268 AVSS.t267 AVSS.t268 AVSS.t235 nfet_03v3 ad=0.8p pd=2.8u as=0 ps=0 w=2u l=2u
X66 VOUT a_n11317_n20927.t1 a_5396_9163.t127 AVDD.t44 pfet_03v3 ad=1.3p pd=5.3u as=0.84p ps=2.84u w=2u l=2u
X67 AVDD.t1216 AVDD.t1215 AVDD.t1216 AVDD.t294 pfet_03v3 ad=0.84p pd=2.84u as=0 ps=0 w=2u l=2u
X68 AVDD.t1214 AVDD.t1213 AVDD.t1214 AVDD.t347 pfet_03v3 ad=1.3p pd=5.3u as=0 ps=0 w=2u l=2u
X69 AVDD IREF.t65 a_n13990_8177.t251 AVDD.t185 pfet_03v3 ad=0.84p pd=2.84u as=0.84p ps=2.84u w=2u l=2u
X70 AVDD.t1212 AVDD.t1211 AVDD.t1212 AVDD.t5 pfet_03v3 ad=0.84p pd=2.84u as=0 ps=0 w=2u l=2u
X71 AVDD.t1210 AVDD.t1209 AVDD.t1210 AVDD.t294 pfet_03v3 ad=0.84p pd=2.84u as=0 ps=0 w=2u l=2u
X72 AVDD.t1208 AVDD.t1207 AVDD.t1208 AVDD.t335 pfet_03v3 ad=1.3p pd=5.3u as=0 ps=0 w=2u l=2u
X73 IREF IREF.t40 AVDD.t1726 AVDD.t480 pfet_03v3 ad=0.84p pd=2.84u as=0.84p ps=2.84u w=2u l=2u
X74 AVDD.t1206 AVDD.t1205 AVDD.t1206 AVDD.t16 pfet_03v3 ad=1.3p pd=5.3u as=0 ps=0 w=2u l=2u
X75 AVDD.t1204 AVDD.t1203 AVDD.t1204 AVDD.t810 pfet_03v3 ad=1.3p pd=5.3u as=0 ps=0 w=2u l=2u
X76 AVDD.t1202 AVDD.t1201 AVDD.t1202 AVDD.t399 pfet_03v3 ad=0.84p pd=2.84u as=0 ps=0 w=2u l=2u
X77 AVDD IREF.t68 a_n13990_8177.t250 AVDD.t97 pfet_03v3 ad=0.84p pd=2.84u as=0.84p ps=2.84u w=2u l=2u
X78 AVDD IREF.t69 a_n11737_n15980.t19 AVDD.t638 pfet_03v3 ad=0.84p pd=2.84u as=1.3p ps=5.3u w=2u l=2u
X79 AVDD IREF.t70 a_n13990_8177.t249 AVDD.t238 pfet_03v3 ad=1.3p pd=5.3u as=0.84p ps=2.84u w=2u l=2u
X80 VOUT a_n11317_n20927.t1 a_5396_9163.t126 AVDD.t44 pfet_03v3 ad=1.3p pd=5.3u as=0.84p ps=2.84u w=2u l=2u
X81 AVDD.t1200 AVDD.t1199 AVDD.t1200 AVDD.t44 pfet_03v3 ad=0.84p pd=2.84u as=0 ps=0 w=2u l=2u
X82 AVDD IREF.t71 a_n13990_8177.t248 AVDD.t53 pfet_03v3 ad=0.84p pd=2.84u as=0.84p ps=2.84u w=2u l=2u
X83 AVDD a_5396_n6451.t122 a_5396_8177.t81 AVDD.t19 pfet_03v3 ad=0.84p pd=2.84u as=0.84p ps=2.84u w=2u l=2u
X84 AVDD IREF.t72 a_n13990_8177.t247 AVDD.t33 pfet_03v3 ad=0.84p pd=2.84u as=1.3p ps=5.3u w=2u l=2u
X85 AVDD IREF.t74 a_n13990_8177.t245 AVDD.t255 pfet_03v3 ad=0.84p pd=2.84u as=0.84p ps=2.84u w=2u l=2u
X86 a_n2101_n15598# a_n11317_n20927.t4 a_n2631_n16323# AVDD.t328 pfet_03v3 ad=0.504p pd=2.04u as=0.78p ps=3.7u w=1.2u l=2u
X87 AVDD.t1198 AVDD.t1197 AVDD.t1198 AVDD.t33 pfet_03v3 ad=1.3p pd=5.3u as=0 ps=0 w=2u l=2u
X88 AVDD.t1196 AVDD.t1195 AVDD.t1196 AVDD.t62 pfet_03v3 ad=1.3p pd=5.3u as=0 ps=0 w=2u l=2u
X89 AVDD.t1194 AVDD.t1193 AVDD.t1194 AVDD.t174 pfet_03v3 ad=0.84p pd=2.84u as=0 ps=0 w=2u l=2u
X90 AVDD.t1192 AVDD.t1191 AVDD.t1192 AVDD.t113 pfet_03v3 ad=1.3p pd=5.3u as=0 ps=0 w=2u l=2u
X91 AVDD IREF.t75 a_n13990_8177.t244 AVDD.t152 pfet_03v3 ad=0.84p pd=2.84u as=1.3p ps=5.3u w=2u l=2u
X92 AVDD.t1190 AVDD.t1189 AVDD.t1190 AVDD.t381 pfet_03v3 ad=0.84p pd=2.84u as=0 ps=0 w=2u l=2u
X93 AVDD.t1188 AVDD.t1187 AVDD.t1188 AVDD.t113 pfet_03v3 ad=1.3p pd=5.3u as=0 ps=0 w=2u l=2u
X94 AVDD.t1186 AVDD.t1185 AVDD.t1186 AVDD.t378 pfet_03v3 ad=0.84p pd=2.84u as=0 ps=0 w=2u l=2u
X95 AVDD a_5396_n6451.t123 a_5396_8177.t80 AVDD.t22 pfet_03v3 ad=0.84p pd=2.84u as=1.3p ps=5.3u w=2u l=2u
X96 AVDD.t1184 AVDD.t1183 AVDD.t1184 AVDD.t264 pfet_03v3 ad=0.504p pd=2.04u as=0 ps=0 w=1.2u l=2u
X97 AVDD.t1182 AVDD.t1181 AVDD.t1182 AVDD.t399 pfet_03v3 ad=0.84p pd=2.84u as=0 ps=0 w=2u l=2u
X98 AVDD IREF.t77 a_n11737_n15980.t18 AVDD.t366 pfet_03v3 ad=0.84p pd=2.84u as=0.84p ps=2.84u w=2u l=2u
X99 VOUT a_n11317_n20927.t1 a_5396_9163.t125 AVDD.t291 pfet_03v3 ad=0.84p pd=2.84u as=0.84p ps=2.84u w=2u l=2u
X100 AVDD.t1180 AVDD.t1179 AVDD.t1180 AVDD.t147 pfet_03v3 ad=0.84p pd=2.84u as=0 ps=0 w=2u l=2u
X101 IREF IREF.t38 AVDD.t1725 AVDD.t717 pfet_03v3 ad=0.84p pd=2.84u as=0.84p ps=2.84u w=2u l=2u
X102 AVDD.t1178 AVDD.t1177 AVDD.t1178 AVDD.t70 pfet_03v3 ad=1.3p pd=5.3u as=0 ps=0 w=2u l=2u
X103 AVDD.t1176 AVDD.t1175 AVDD.t1176 AVDD.t155 pfet_03v3 ad=1.3p pd=5.3u as=0 ps=0 w=2u l=2u
X104 AVSS.t266 AVSS.t265 AVSS.t266 AVSS.t31 nfet_03v3 ad=0.732p pd=3.62u as=0 ps=0 w=1.2u l=2u
X105 AVDD IREF.t81 a_n13990_8177.t240 AVDD.t97 pfet_03v3 ad=0.84p pd=2.84u as=0.84p ps=2.84u w=2u l=2u
X106 AVDD a_5396_n6451.t124 a_5396_8177.t79 AVDD.t226 pfet_03v3 ad=0.84p pd=2.84u as=1.3p ps=5.3u w=2u l=2u
X107 AVDD.t1174 AVDD.t1173 AVDD.t1174 AVDD.t140 pfet_03v3 ad=0.84p pd=2.84u as=0 ps=0 w=2u l=2u
X108 AVDD a_5396_n6451.t126 a_5396_9163.t77 AVDD.t174 pfet_03v3 ad=0.84p pd=2.84u as=0.84p ps=2.84u w=2u l=2u
X109 AVDD a_5396_n6451.t127 a_5396_8177.t77 AVDD.t22 pfet_03v3 ad=0.84p pd=2.84u as=1.3p ps=5.3u w=2u l=2u
X110 AVDD.t1172 AVDD.t1171 AVDD.t1172 AVDD.t381 pfet_03v3 ad=0.84p pd=2.84u as=0 ps=0 w=2u l=2u
X111 AVDD.t1170 AVDD.t1169 AVDD.t1170 AVDD.t378 pfet_03v3 ad=0.84p pd=2.84u as=0 ps=0 w=2u l=2u
X112 VOUT a_n11317_n20927.t1 a_5396_9163.t124 AVDD.t291 pfet_03v3 ad=0.84p pd=2.84u as=0.84p ps=2.84u w=2u l=2u
X113 AVDD IREF.t82 a_n11737_n14973.t27 AVDD.t717 pfet_03v3 ad=0.84p pd=2.84u as=0.84p ps=2.84u w=2u l=2u
X114 AVSS.t264 AVSS.t263 AVSS.t264 AVSS.t25 nfet_03v3 ad=0.8p pd=2.8u as=0 ps=0 w=2u l=2u
X115 AVSS.t262 AVSS.t261 AVSS.t262 AVSS.t19 nfet_03v3 ad=1.22p pd=5.22u as=0 ps=0 w=2u l=2u
X116 AVSS.t260 AVSS.t259 AVSS.t260 AVSS.t22 nfet_03v3 ad=0.8p pd=2.8u as=0 ps=0 w=2u l=2u
X117 AVDD.t1168 AVDD.t1167 AVDD.t1168 AVDD.t294 pfet_03v3 ad=0.84p pd=2.84u as=0 ps=0 w=2u l=2u
X118 AVDD IREF.t83 a_n11737_n14973.t26 AVDD.t282 pfet_03v3 ad=0.84p pd=2.84u as=1.3p ps=5.3u w=2u l=2u
X119 a_n2101_n16323# a_n11317_n20927.t1 a_n2631_n16323# AVDD.t328 pfet_03v3 ad=0.504p pd=2.04u as=0.78p ps=3.7u w=1.2u l=2u
X120 VOUT a_n11317_n20927.t1 a_5396_9163.t123 AVDD.t338 pfet_03v3 ad=1.3p pd=5.3u as=0.84p ps=2.84u w=2u l=2u
X121 AVDD a_5396_n6451.t128 a_5396_8177.t76 AVDD.t147 pfet_03v3 ad=0.84p pd=2.84u as=0.84p ps=2.84u w=2u l=2u
X122 AVSS a_n11737_n14973.t38 a_n13990_n6451.t51 AVSS.t55 nfet_03v3 ad=0.8p pd=2.8u as=0.8p ps=2.8u w=2u l=2u
X123 a_n6139_n21443# a_n11737_n15980.t27 a_n6661_n21443# AVSS.t178 nfet_03v3 ad=0.48p pd=2u as=0.732p ps=3.62u w=1.2u l=2u
X124 AVDD.t1166 AVDD.t1165 AVDD.t1166 AVDD.t335 pfet_03v3 ad=1.3p pd=5.3u as=0 ps=0 w=2u l=2u
X125 AVDD.t1164 AVDD.t1163 AVDD.t1164 AVDD.t291 pfet_03v3 ad=0.84p pd=2.84u as=0 ps=0 w=2u l=2u
X126 AVDD.t1162 AVDD.t1161 AVDD.t1162 AVDD.t279 pfet_03v3 ad=0.84p pd=2.84u as=0 ps=0 w=2u l=2u
X127 AVDD IREF.t84 a_n13990_8177.t239 AVDD.t140 pfet_03v3 ad=0.84p pd=2.84u as=0.84p ps=2.84u w=2u l=2u
X128 AVSS a_n11737_n14973.t39 a_n13990_n6451.t52 AVSS.t114 nfet_03v3 ad=1.22p pd=5.22u as=0.8p ps=2.8u w=2u l=2u
X129 AVDD.t1160 AVDD.t1159 AVDD.t1160 AVDD.t347 pfet_03v3 ad=1.3p pd=5.3u as=0 ps=0 w=2u l=2u
X130 VOUT a_n11317_n20927.t1 a_5396_9163.t122 AVDD.t44 pfet_03v3 ad=1.3p pd=5.3u as=0.84p ps=2.84u w=2u l=2u
X131 AVDD.t1158 AVDD.t1157 AVDD.t1158 AVDD.t335 pfet_03v3 ad=1.3p pd=5.3u as=0 ps=0 w=2u l=2u
X132 AVSS.t258 AVSS.t257 AVSS.t258 AVSS.t222 nfet_03v3 ad=0.8p pd=2.8u as=0 ps=0 w=2u l=2u
X133 VOUT a_n11317_n20927.t1 a_5396_9163.t121 AVDD.t338 pfet_03v3 ad=1.3p pd=5.3u as=0.84p ps=2.84u w=2u l=2u
X134 AVDD.t1156 AVDD.t1155 AVDD.t1156 AVDD.t241 pfet_03v3 ad=1.3p pd=5.3u as=0 ps=0 w=2u l=2u
X135 AVDD.t1154 AVDD.t1153 AVDD.t1154 AVDD.t335 pfet_03v3 ad=1.3p pd=5.3u as=0 ps=0 w=2u l=2u
X136 AVDD.t1152 AVDD.t1151 AVDD.t1152 AVDD.t200 pfet_03v3 ad=0.84p pd=2.84u as=0 ps=0 w=2u l=2u
X137 AVDD.t1150 AVDD.t1149 AVDD.t1150 AVDD.t13 pfet_03v3 ad=0.78p pd=3.7u as=0 ps=0 w=1.2u l=2u
X138 AVDD a_5396_n6451.t132 a_5396_8177.t74 AVDD.t174 pfet_03v3 ad=0.84p pd=2.84u as=0.84p ps=2.84u w=2u l=2u
X139 AVDD.t1148 AVDD.t1147 AVDD.t1148 AVDD.t241 pfet_03v3 ad=1.3p pd=5.3u as=0 ps=0 w=2u l=2u
X140 AVDD.t1146 AVDD.t1145 AVDD.t1146 AVDD.t200 pfet_03v3 ad=0.84p pd=2.84u as=0 ps=0 w=2u l=2u
X141 AVDD.t1144 AVDD.t1143 AVDD.t1144 AVDD.t56 pfet_03v3 ad=1.3p pd=5.3u as=0 ps=0 w=2u l=2u
X142 VOUT a_n11317_n20927.t1 a_5396_9163.t120 AVDD.t44 pfet_03v3 ad=1.3p pd=5.3u as=0.84p ps=2.84u w=2u l=2u
X143 a_n1533_n17634# a_n11317_n20927.t1 a_n2101_n17634# AVDD.t394 pfet_03v3 ad=0.504p pd=2.04u as=0.504p ps=2.04u w=1.2u l=2u
X144 AVDD.t1142 AVDD.t1141 AVDD.t1142 AVDD.t180 pfet_03v3 ad=1.3p pd=5.3u as=0 ps=0 w=2u l=2u
X145 AVSS.t256 AVSS.t255 AVSS.t256 AVSS.t31 nfet_03v3 ad=0.732p pd=3.62u as=0 ps=0 w=1.2u l=2u
X146 AVDD.t1140 AVDD.t1139 AVDD.t1140 AVDD.t241 pfet_03v3 ad=1.3p pd=5.3u as=0 ps=0 w=2u l=2u
X147 AVDD.t1138 AVDD.t1137 AVDD.t1138 AVDD.t238 pfet_03v3 ad=0.84p pd=2.84u as=0 ps=0 w=2u l=2u
X148 AVDD.t1136 AVDD.t1135 AVDD.t1136 AVDD.t252 pfet_03v3 ad=1.3p pd=5.3u as=0 ps=0 w=2u l=2u
X149 AVSS.t254 AVSS.t253 AVSS.t254 AVSS.t4 nfet_03v3 ad=0.732p pd=3.62u as=0 ps=0 w=1.2u l=2u
X150 AVSS a_n11737_n14973.t40 a_n13990_n6451.t53 AVSS.t10 nfet_03v3 ad=0.8p pd=2.8u as=0.8p ps=2.8u w=2u l=2u
X151 AVDD.t1134 AVDD.t1133 AVDD.t1134 AVDD.t140 pfet_03v3 ad=0.84p pd=2.84u as=0 ps=0 w=2u l=2u
X152 AVDD.t1132 AVDD.t1131 AVDD.t1132 AVDD.t373 pfet_03v3 ad=0.78p pd=3.7u as=0 ps=0 w=1.2u l=2u
X153 AVDD.t1130 AVDD.t1129 AVDD.t1130 AVDD.t62 pfet_03v3 ad=1.3p pd=5.3u as=0 ps=0 w=2u l=2u
X154 AVDD IREF.t86 a_n13990_8177.t237 AVDD.t255 pfet_03v3 ad=0.84p pd=2.84u as=0.84p ps=2.84u w=2u l=2u
X155 AVDD.t1128 AVDD.t1127 AVDD.t1128 AVDD.t347 pfet_03v3 ad=1.3p pd=5.3u as=0 ps=0 w=2u l=2u
X156 AVDD.t1126 AVDD.t1125 AVDD.t1126 AVDD.t140 pfet_03v3 ad=0.84p pd=2.84u as=0 ps=0 w=2u l=2u
X157 AVDD a_5396_n6451.t133 a_5396_9163.t74 AVDD.t147 pfet_03v3 ad=0.84p pd=2.84u as=0.84p ps=2.84u w=2u l=2u
X158 AVDD IREF.t87 a_n13990_8177.t236 AVDD.t53 pfet_03v3 ad=0.84p pd=2.84u as=0.84p ps=2.84u w=2u l=2u
X159 AVDD.t1124 AVDD.t1123 AVDD.t1124 AVDD.t255 pfet_03v3 ad=0.84p pd=2.84u as=0 ps=0 w=2u l=2u
X160 AVDD.t1122 AVDD.t1121 AVDD.t1122 AVDD.t717 pfet_03v3 ad=0.84p pd=2.84u as=0 ps=0 w=2u l=2u
X161 AVDD.t1120 AVDD.t1119 AVDD.t1120 AVDD.t113 pfet_03v3 ad=1.3p pd=5.3u as=0 ps=0 w=2u l=2u
X162 AVDD.t1118 AVDD.t1117 AVDD.t1118 AVDD.t399 pfet_03v3 ad=0.84p pd=2.84u as=0 ps=0 w=2u l=2u
X163 AVSS.t252 AVSS.t251 AVSS.t252 AVSS.t58 nfet_03v3 ad=1.22p pd=5.22u as=0 ps=0 w=2u l=2u
X164 AVDD.t1116 AVDD.t1115 AVDD.t1116 AVDD.t79 pfet_03v3 ad=1.3p pd=5.3u as=0 ps=0 w=2u l=2u
X165 AVDD.t1114 AVDD.t1113 AVDD.t1114 AVDD.t82 pfet_03v3 ad=1.3p pd=5.3u as=0 ps=0 w=2u l=2u
X166 AVDD IREF.t88 a_n13990_8177.t235 AVDD.t140 pfet_03v3 ad=0.84p pd=2.84u as=0.84p ps=2.84u w=2u l=2u
X167 AVDD.t1112 AVDD.t1111 AVDD.t1112 AVDD.t335 pfet_03v3 ad=1.3p pd=5.3u as=0 ps=0 w=2u l=2u
X168 AVDD IREF.t36 IREF.t37 AVDD.t555 pfet_03v3 ad=0.84p pd=2.84u as=0.84p ps=2.84u w=2u l=2u
X169 AVDD IREF.t34 IREF.t35 AVDD.t638 pfet_03v3 ad=0.84p pd=2.84u as=1.3p ps=5.3u w=2u l=2u
X170 AVSS.t250 AVSS.t249 AVSS.t250 AVSS.t77 nfet_03v3 ad=1.22p pd=5.22u as=0 ps=0 w=2u l=2u
X171 AVDD.t1110 AVDD.t1109 AVDD.t1110 AVDD.t399 pfet_03v3 ad=0.84p pd=2.84u as=0 ps=0 w=2u l=2u
X172 AVDD.t1108 AVDD.t1107 AVDD.t1108 AVDD.t226 pfet_03v3 ad=1.3p pd=5.3u as=0 ps=0 w=2u l=2u
X173 AVDD.t1106 AVDD.t1105 AVDD.t1106 AVDD.t70 pfet_03v3 ad=1.3p pd=5.3u as=0 ps=0 w=2u l=2u
X174 AVDD.t1104 AVDD.t1103 AVDD.t1104 AVDD.t205 pfet_03v3 ad=0.84p pd=2.84u as=0 ps=0 w=2u l=2u
X175 AVDD.t1102 AVDD.t1101 AVDD.t1102 AVDD.t233 pfet_03v3 ad=1.3p pd=5.3u as=0 ps=0 w=2u l=2u
X176 AVDD.t1100 AVDD.t1099 AVDD.t1100 AVDD.t8 pfet_03v3 ad=1.3p pd=5.3u as=0 ps=0 w=2u l=2u
X177 AVDD.t1098 AVDD.t1097 AVDD.t1098 AVDD.t205 pfet_03v3 ad=0.84p pd=2.84u as=0 ps=0 w=2u l=2u
X178 AVDD.t1096 AVDD.t1095 AVDD.t1096 AVDD.t16 pfet_03v3 ad=1.3p pd=5.3u as=0 ps=0 w=2u l=2u
X179 AVDD.t1094 AVDD.t1093 AVDD.t1094 AVDD.t67 pfet_03v3 ad=1.3p pd=5.3u as=0 ps=0 w=2u l=2u
X180 AVDD.t1092 AVDD.t1091 AVDD.t1092 AVDD.t59 pfet_03v3 ad=1.3p pd=5.3u as=0 ps=0 w=2u l=2u
X181 AVDD IREF.t90 a_n13990_8177.t233 AVDD.t97 pfet_03v3 ad=0.84p pd=2.84u as=0.84p ps=2.84u w=2u l=2u
X182 AVDD.t1090 AVDD.t1089 AVDD.t1090 AVDD.t113 pfet_03v3 ad=1.3p pd=5.3u as=0 ps=0 w=2u l=2u
X183 AVDD.t1088 AVDD.t1087 AVDD.t1088 AVDD.t205 pfet_03v3 ad=0.84p pd=2.84u as=0 ps=0 w=2u l=2u
X184 AVDD.t1086 AVDD.t1085 AVDD.t1086 AVDD.t97 pfet_03v3 ad=0.84p pd=2.84u as=0 ps=0 w=2u l=2u
X185 VOUT a_n11317_n20927.t1 a_5396_9163.t119 AVDD.t174 pfet_03v3 ad=0.84p pd=2.84u as=0.84p ps=2.84u w=2u l=2u
X186 AVDD IREF.t92 a_n13990_8177.t232 AVDD.t5 pfet_03v3 ad=1.3p pd=5.3u as=0.84p ps=2.84u w=2u l=2u
X187 AVSS.t248 AVSS.t247 AVSS.t248 AVSS.t138 nfet_03v3 ad=1.3725p pd=5.72u as=0 ps=0 w=2.25u l=2u
X188 AVDD.t1084 AVDD.t1083 AVDD.t1084 AVDD.t113 pfet_03v3 ad=1.3p pd=5.3u as=0 ps=0 w=2u l=2u
X189 AVSS.t246 AVSS.t245 AVSS.t246 AVSS.t49 nfet_03v3 ad=1.3725p pd=5.72u as=0 ps=0 w=2.25u l=2u
X190 AVDD IREF.t93 a_n13990_8177.t231 AVDD.t82 pfet_03v3 ad=0.84p pd=2.84u as=1.3p ps=5.3u w=2u l=2u
X191 VOUT a_n11317_n20927.t1 a_5396_9163.t118 AVDD.t291 pfet_03v3 ad=0.84p pd=2.84u as=0.84p ps=2.84u w=2u l=2u
X192 AVDD.t1082 AVDD.t1081 AVDD.t1082 AVDD.t30 pfet_03v3 ad=0.84p pd=2.84u as=0 ps=0 w=2u l=2u
X193 AVDD.t1080 AVDD.t1079 AVDD.t1080 AVDD.t130 pfet_03v3 ad=1.3p pd=5.3u as=0 ps=0 w=2u l=2u
X194 AVDD.t1078 AVDD.t1077 AVDD.t1078 AVDD.t192 pfet_03v3 ad=0.84p pd=2.84u as=0 ps=0 w=2u l=2u
X195 AVDD.t1076 AVDD.t1075 AVDD.t1076 AVDD.t200 pfet_03v3 ad=0.84p pd=2.84u as=0 ps=0 w=2u l=2u
X196 AVDD.t1074 AVDD.t1073 AVDD.t1074 AVDD.t294 pfet_03v3 ad=0.84p pd=2.84u as=0 ps=0 w=2u l=2u
X197 AVDD.t1072 AVDD.t1071 AVDD.t1072 AVDD.t185 pfet_03v3 ad=0.84p pd=2.84u as=0 ps=0 w=2u l=2u
X198 AVDD.t1070 AVDD.t1069 AVDD.t1070 AVDD.t113 pfet_03v3 ad=1.3p pd=5.3u as=0 ps=0 w=2u l=2u
X199 AVDD.t1068 AVDD.t1067 AVDD.t1068 AVDD.t30 pfet_03v3 ad=0.84p pd=2.84u as=0 ps=0 w=2u l=2u
X200 AVDD.t1066 AVDD.t1065 AVDD.t1066 AVDD.t70 pfet_03v3 ad=1.3p pd=5.3u as=0 ps=0 w=2u l=2u
X201 AVDD a_5396_n6451.t135 a_5396_9163.t73 AVDD.t22 pfet_03v3 ad=0.84p pd=2.84u as=1.3p ps=5.3u w=2u l=2u
X202 AVDD.t1064 AVDD.t1063 AVDD.t1064 AVDD.t195 pfet_03v3 ad=0.84p pd=2.84u as=0 ps=0 w=2u l=2u
X203 AVSS.t244 AVSS.t243 AVSS.t244 AVSS.t201 nfet_03v3 ad=1.22p pd=5.22u as=0 ps=0 w=2u l=2u
X204 VOUT a_n11317_n20927.t1 a_5396_9163.t117 AVDD.t291 pfet_03v3 ad=0.84p pd=2.84u as=0.84p ps=2.84u w=2u l=2u
X205 AVSS.t242 AVSS.t241 AVSS.t242 AVSS.t133 nfet_03v3 ad=1.3725p pd=5.72u as=0 ps=0 w=2.25u l=2u
X206 AVDD.t1062 AVDD.t1061 AVDD.t1062 AVDD.t279 pfet_03v3 ad=0.84p pd=2.84u as=0 ps=0 w=2u l=2u
X207 AVDD.t1060 AVDD.t1059 AVDD.t1060 AVDD.t70 pfet_03v3 ad=1.3p pd=5.3u as=0 ps=0 w=2u l=2u
X208 AVSS.t240 AVSS.t239 AVSS.t240 AVSS.t37 nfet_03v3 ad=1.22p pd=5.22u as=0 ps=0 w=2u l=2u
X209 AVDD.t1058 AVDD.t1057 AVDD.t1058 AVDD.t19 pfet_03v3 ad=0.84p pd=2.84u as=0 ps=0 w=2u l=2u
X210 a_n2101_n17634# a_n11317_n20927.t1 a_n2631_n17634# AVDD.t328 pfet_03v3 ad=0.504p pd=2.04u as=0.78p ps=3.7u w=1.2u l=2u
X211 AVDD.t1056 AVDD.t1055 AVDD.t1056 AVDD.t294 pfet_03v3 ad=0.84p pd=2.84u as=0 ps=0 w=2u l=2u
X212 AVDD a_5396_n6451.t137 a_5396_8177.t72 AVDD.t174 pfet_03v3 ad=0.84p pd=2.84u as=0.84p ps=2.84u w=2u l=2u
X213 AVDD.t1054 AVDD.t1053 AVDD.t1054 AVDD.t152 pfet_03v3 ad=1.3p pd=5.3u as=0 ps=0 w=2u l=2u
X214 AVDD IREF.t96 a_n13990_8177.t228 AVDD.t82 pfet_03v3 ad=0.84p pd=2.84u as=1.3p ps=5.3u w=2u l=2u
X215 IREF IREF.t32 AVDD.t1720 AVDD.t323 pfet_03v3 ad=0.84p pd=2.84u as=0.84p ps=2.84u w=2u l=2u
X216 AVDD.t1052 AVDD.t1051 AVDD.t1052 AVDD.t174 pfet_03v3 ad=0.84p pd=2.84u as=0 ps=0 w=2u l=2u
X217 AVDD.t1050 AVDD.t1049 AVDD.t1050 AVDD.t79 pfet_03v3 ad=1.3p pd=5.3u as=0 ps=0 w=2u l=2u
X218 AVDD.t1048 AVDD.t1047 AVDD.t1048 AVDD.t118 pfet_03v3 ad=0.84p pd=2.84u as=0 ps=0 w=2u l=2u
X219 AVDD a_5396_n6451.t138 a_5396_9163.t71 AVDD.t155 pfet_03v3 ad=0.84p pd=2.84u as=1.3p ps=5.3u w=2u l=2u
X220 AVDD.t1046 AVDD.t1045 AVDD.t1046 AVDD.t135 pfet_03v3 ad=0.84p pd=2.84u as=0 ps=0 w=2u l=2u
X221 AVDD.t1044 AVDD.t1043 AVDD.t1044 AVDD.t638 pfet_03v3 ad=1.3p pd=5.3u as=0 ps=0 w=2u l=2u
X222 AVSS.t238 AVSS.t237 AVSS.t238 AVSS.t46 nfet_03v3 ad=1.22p pd=5.22u as=0 ps=0 w=2u l=2u
X223 AVDD.t1042 AVDD.t1041 AVDD.t1042 AVDD.t252 pfet_03v3 ad=1.3p pd=5.3u as=0 ps=0 w=2u l=2u
X224 AVDD.t1040 AVDD.t1039 AVDD.t1040 AVDD.t118 pfet_03v3 ad=0.84p pd=2.84u as=0 ps=0 w=2u l=2u
X225 AVDD a_5396_n6451.t140 a_5396_8177.t71 AVDD.t399 pfet_03v3 ad=0.84p pd=2.84u as=0.84p ps=2.84u w=2u l=2u
X226 AVDD.t1038 AVDD.t1037 AVDD.t1038 AVDD.t67 pfet_03v3 ad=1.3p pd=5.3u as=0 ps=0 w=2u l=2u
X227 AVDD.t1036 AVDD.t1035 AVDD.t1036 AVDD.t135 pfet_03v3 ad=0.84p pd=2.84u as=0 ps=0 w=2u l=2u
X228 AVDD.t1034 AVDD.t1033 AVDD.t1034 AVDD.t279 pfet_03v3 ad=0.84p pd=2.84u as=0 ps=0 w=2u l=2u
X229 IREF IREF.t30 AVDD.t1719 AVDD.t480 pfet_03v3 ad=0.84p pd=2.84u as=0.84p ps=2.84u w=2u l=2u
X230 AVDD a_5396_n6451.t141 a_5396_8177.t70 AVDD.t174 pfet_03v3 ad=0.84p pd=2.84u as=0.84p ps=2.84u w=2u l=2u
X231 AVDD.t1032 AVDD.t1031 AVDD.t1032 AVDD.t135 pfet_03v3 ad=0.84p pd=2.84u as=0 ps=0 w=2u l=2u
X232 AVDD a_5396_n6451.t142 a_5396_9163.t69 AVDD.t147 pfet_03v3 ad=0.84p pd=2.84u as=0.84p ps=2.84u w=2u l=2u
X233 VOUT a_n11317_n20927.t1 a_5396_9163.t116 AVDD.t381 pfet_03v3 ad=1.3p pd=5.3u as=0.84p ps=2.84u w=2u l=2u
X234 AVDD a_5396_n6451.t144 a_5396_8177.t68 AVDD.t19 pfet_03v3 ad=0.84p pd=2.84u as=0.84p ps=2.84u w=2u l=2u
X235 AVSS.t236 AVSS.t234 AVSS.t236 AVSS.t235 nfet_03v3 ad=0.8p pd=2.8u as=0 ps=0 w=2u l=2u
X236 AVDD.t1030 AVDD.t1029 AVDD.t1030 AVDD.t147 pfet_03v3 ad=0.84p pd=2.84u as=0 ps=0 w=2u l=2u
X237 AVDD IREF.t99 a_n13990_8177.t227 AVDD.t140 pfet_03v3 ad=0.84p pd=2.84u as=0.84p ps=2.84u w=2u l=2u
X238 AVDD.t1028 AVDD.t1027 AVDD.t1028 AVDD.t226 pfet_03v3 ad=1.3p pd=5.3u as=0 ps=0 w=2u l=2u
X239 AVDD.t1026 AVDD.t1025 AVDD.t1026 AVDD.t140 pfet_03v3 ad=0.84p pd=2.84u as=0 ps=0 w=2u l=2u
X240 AVDD IREF.t100 a_n13990_8177.t226 AVDD.t378 pfet_03v3 ad=0.84p pd=2.84u as=0.84p ps=2.84u w=2u l=2u
X241 a_n6139_n20820# a_n11737_n15980.t36 a_n6661_n21443# AVSS.t178 nfet_03v3 ad=0.48p pd=2u as=0.732p ps=3.62u w=1.2u l=2u
X242 AVDD.t1024 AVDD.t1023 AVDD.t1024 AVDD.t252 pfet_03v3 ad=1.3p pd=5.3u as=0 ps=0 w=2u l=2u
X243 VOUT a_n11737_n15980.t37 a_n13990_n5465.t36 AVSS.t7 nfet_03v3 ad=0.8p pd=2.8u as=0.8p ps=2.8u w=2u l=2u
X244 AVSS a_n11737_n14973.t42 a_n13990_n6451.t19 AVSS.t43 nfet_03v3 ad=0.8p pd=2.8u as=0.8p ps=2.8u w=2u l=2u
X245 AVDD.t1022 AVDD.t1021 AVDD.t1022 AVDD.t121 pfet_03v3 ad=0.84p pd=2.84u as=0 ps=0 w=2u l=2u
X246 AVDD IREF.t101 a_n11737_n14973.t24 AVDD.t555 pfet_03v3 ad=0.84p pd=2.84u as=0.84p ps=2.84u w=2u l=2u
X247 AVDD.t1020 AVDD.t1019 AVDD.t1020 AVDD.t252 pfet_03v3 ad=1.3p pd=5.3u as=0 ps=0 w=2u l=2u
X248 AVSS.t233 AVSS.t232 AVSS.t233 AVSS.t0 nfet_03v3 ad=0.8p pd=2.8u as=0 ps=0 w=2u l=2u
X249 AVDD.t1018 AVDD.t1017 AVDD.t1018 AVDD.t8 pfet_03v3 ad=1.3p pd=5.3u as=0 ps=0 w=2u l=2u
X250 AVDD.t1016 AVDD.t1015 AVDD.t1016 AVDD.t252 pfet_03v3 ad=1.3p pd=5.3u as=0 ps=0 w=2u l=2u
X251 AVDD.t1014 AVDD.t1013 AVDD.t1014 AVDD.t62 pfet_03v3 ad=1.3p pd=5.3u as=0 ps=0 w=2u l=2u
X252 AVDD.t1012 AVDD.t1011 AVDD.t1012 AVDD.t200 pfet_03v3 ad=0.84p pd=2.84u as=0 ps=0 w=2u l=2u
X253 AVDD.t1010 AVDD.t1009 AVDD.t1010 AVDD.t226 pfet_03v3 ad=1.3p pd=5.3u as=0 ps=0 w=2u l=2u
X254 AVDD IREF.t102 a_n13990_8177.t225 AVDD.t53 pfet_03v3 ad=0.84p pd=2.84u as=0.84p ps=2.84u w=2u l=2u
X255 AVDD a_5396_n6451.t147 a_5396_9163.t66 AVDD.t19 pfet_03v3 ad=0.84p pd=2.84u as=0.84p ps=2.84u w=2u l=2u
X256 AVDD.t1008 AVDD.t1007 AVDD.t1008 AVDD.t118 pfet_03v3 ad=0.84p pd=2.84u as=0 ps=0 w=2u l=2u
X257 AVDD IREF.t28 IREF.t29 AVDD.t282 pfet_03v3 ad=0.84p pd=2.84u as=1.3p ps=5.3u w=2u l=2u
X258 AVDD a_5396_n6451.t148 a_5396_8177.t67 AVDD.t241 pfet_03v3 ad=0.84p pd=2.84u as=1.3p ps=5.3u w=2u l=2u
X259 AVDD IREF.t103 a_n13990_8177.t224 AVDD.t238 pfet_03v3 ad=1.3p pd=5.3u as=0.84p ps=2.84u w=2u l=2u
X260 AVDD.t1006 AVDD.t1005 AVDD.t1006 AVDD.t195 pfet_03v3 ad=0.84p pd=2.84u as=0 ps=0 w=2u l=2u
X261 AVDD.t1004 AVDD.t1003 AVDD.t1004 AVDD.t67 pfet_03v3 ad=1.3p pd=5.3u as=0 ps=0 w=2u l=2u
X262 AVDD IREF.t104 a_n11737_n15980.t17 AVDD.t555 pfet_03v3 ad=0.84p pd=2.84u as=0.84p ps=2.84u w=2u l=2u
X263 AVSS a_n11737_n14973.t43 a_n13990_n6451.t20 AVSS.t85 nfet_03v3 ad=0.8p pd=2.8u as=1.22p ps=5.22u w=2u l=2u
X264 a_n965_n16909# a_n11317_n20927.t1 a_n1533_n16909# AVDD.t264 pfet_03v3 ad=0.78p pd=3.7u as=0.504p ps=2.04u w=1.2u l=2u
X265 AVDD.t1002 AVDD.t1001 AVDD.t1002 AVDD.t56 pfet_03v3 ad=1.3p pd=5.3u as=0 ps=0 w=2u l=2u
X266 AVDD.t1000 AVDD.t999 AVDD.t1000 AVDD.t8 pfet_03v3 ad=1.3p pd=5.3u as=0 ps=0 w=2u l=2u
X267 AVDD.t998 AVDD.t997 AVDD.t998 AVDD.t67 pfet_03v3 ad=1.3p pd=5.3u as=0 ps=0 w=2u l=2u
X268 AVDD.t996 AVDD.t995 AVDD.t996 AVDD.t92 pfet_03v3 ad=0.84p pd=2.84u as=0 ps=0 w=2u l=2u
X269 AVDD a_5396_n6451.t149 a_5396_9163.t65 AVDD.t147 pfet_03v3 ad=0.84p pd=2.84u as=0.84p ps=2.84u w=2u l=2u
X270 AVDD.t994 AVDD.t993 AVDD.t994 AVDD.t200 pfet_03v3 ad=0.84p pd=2.84u as=0 ps=0 w=2u l=2u
X271 AVSS.t231 AVSS.t230 AVSS.t231 AVSS.t28 nfet_03v3 ad=1.22p pd=5.22u as=0 ps=0 w=2u l=2u
X272 AVDD a_5396_n6451.t150 a_5396_8177.t66 AVDD.t347 pfet_03v3 ad=0.84p pd=2.84u as=1.3p ps=5.3u w=2u l=2u
X273 AVSS.t229 AVSS.t228 AVSS.t229 AVSS.t31 nfet_03v3 ad=0.732p pd=3.62u as=0 ps=0 w=1.2u l=2u
X274 AVDD IREF.t105 a_n13990_8177.t223 AVDD.t82 pfet_03v3 ad=0.84p pd=2.84u as=1.3p ps=5.3u w=2u l=2u
X275 AVDD.t992 AVDD.t991 AVDD.t992 AVDD.t2 pfet_03v3 ad=0.78p pd=3.7u as=0 ps=0 w=1.2u l=2u
X276 AVDD.t990 AVDD.t989 AVDD.t990 AVDD.t79 pfet_03v3 ad=1.3p pd=5.3u as=0 ps=0 w=2u l=2u
X277 AVDD.t988 AVDD.t987 AVDD.t988 AVDD.t195 pfet_03v3 ad=0.84p pd=2.84u as=0 ps=0 w=2u l=2u
X278 AVDD IREF.t106 a_n13990_8177.t222 AVDD.t335 pfet_03v3 ad=0.84p pd=2.84u as=1.3p ps=5.3u w=2u l=2u
X279 AVDD.t986 AVDD.t985 AVDD.t986 AVDD.t82 pfet_03v3 ad=1.3p pd=5.3u as=0 ps=0 w=2u l=2u
X280 AVSS a_n11737_n14973.t6 a_n11737_n14973.t7 AVSS.t138 nfet_03v3 ad=0.9p pd=3.05u as=1.3725p ps=5.72u w=2.25u l=2u
X281 AVSS.t227 AVSS.t226 AVSS.t227 AVSS.t175 nfet_03v3 ad=0.8p pd=2.8u as=0 ps=0 w=2u l=2u
X282 AVDD.t984 AVDD.t983 AVDD.t984 AVDD.t180 pfet_03v3 ad=1.3p pd=5.3u as=0 ps=0 w=2u l=2u
X283 AVSS.t225 AVSS.t224 AVSS.t225 AVSS.t172 nfet_03v3 ad=1.22p pd=5.22u as=0 ps=0 w=2u l=2u
X284 AVDD.t982 AVDD.t981 AVDD.t982 AVDD.t70 pfet_03v3 ad=1.3p pd=5.3u as=0 ps=0 w=2u l=2u
X285 AVDD.t980 AVDD.t979 AVDD.t980 AVDD.t67 pfet_03v3 ad=1.3p pd=5.3u as=0 ps=0 w=2u l=2u
X286 AVSS a_n11737_n14973.t44 a_n13990_n5465.t24 AVSS.t114 nfet_03v3 ad=1.22p pd=5.22u as=0.8p ps=2.8u w=2u l=2u
X287 VOUT a_n11317_n20927.t1 a_5396_9163.t115 AVDD.t87 pfet_03v3 ad=0.84p pd=2.84u as=0.84p ps=2.84u w=2u l=2u
X288 AVDD.t978 AVDD.t977 AVDD.t978 AVDD.t16 pfet_03v3 ad=1.3p pd=5.3u as=0 ps=0 w=2u l=2u
X289 AVDD.t976 AVDD.t975 AVDD.t976 AVDD.t56 pfet_03v3 ad=1.3p pd=5.3u as=0 ps=0 w=2u l=2u
X290 AVDD.t974 AVDD.t973 AVDD.t974 AVDD.t338 pfet_03v3 ad=0.84p pd=2.84u as=0 ps=0 w=2u l=2u
X291 AVDD.t972 AVDD.t971 AVDD.t972 AVDD.t378 pfet_03v3 ad=0.84p pd=2.84u as=0 ps=0 w=2u l=2u
X292 AVDD.t970 AVDD.t969 AVDD.t970 AVDD.t59 pfet_03v3 ad=1.3p pd=5.3u as=0 ps=0 w=2u l=2u
X293 AVSS.t223 AVSS.t221 AVSS.t223 AVSS.t222 nfet_03v3 ad=0.8p pd=2.8u as=0 ps=0 w=2u l=2u
X294 AVDD.t968 AVDD.t967 AVDD.t968 AVDD.t56 pfet_03v3 ad=1.3p pd=5.3u as=0 ps=0 w=2u l=2u
X295 AVDD.t966 AVDD.t965 AVDD.t966 AVDD.t378 pfet_03v3 ad=0.84p pd=2.84u as=0 ps=0 w=2u l=2u
X296 AVSS a_n11737_n14973.t45 a_n13990_n5465.t15 AVSS.t25 nfet_03v3 ad=1.22p pd=5.22u as=0.8p ps=2.8u w=2u l=2u
X297 AVSS a_n11737_n14973.t46 a_n13990_n6451.t12 AVSS.t22 nfet_03v3 ad=0.8p pd=2.8u as=0.8p ps=2.8u w=2u l=2u
X298 AVSS a_n11737_n14973.t47 a_n13990_n5465.t16 AVSS.t19 nfet_03v3 ad=0.8p pd=2.8u as=1.22p ps=5.22u w=2u l=2u
X299 AVDD.t964 AVDD.t963 AVDD.t964 AVDD.t5 pfet_03v3 ad=0.84p pd=2.84u as=0 ps=0 w=2u l=2u
X300 AVDD.t962 AVDD.t961 AVDD.t962 AVDD.t555 pfet_03v3 ad=0.84p pd=2.84u as=0 ps=0 w=2u l=2u
X301 AVSS a_n11737_n14973.t48 a_n11317_n20927.t1 AVSS.t133 nfet_03v3 ad=0.9p pd=3.05u as=1.3725p ps=5.72u w=2.25u l=2u