* NGSPICE file created from FC_top.ext - technology: gf180mcuD

.subckt FC_top VP VN VOUT IREF AVSS AVDD
X0 AVDD.t1280 AVDD.t1279 AVDD.t1280 AVDD.t178 pfet_03v3 ad=0.84p pd=2.84u as=0 ps=0 w=2u l=2u
X1 AVSS.t282 AVSS.t281 AVSS.t282 AVSS.t43 nfet_03v3 ad=1.22p pd=5.22u as=0 ps=0 w=2u l=2u
X2 AVDD.t1376 a_5396_n6451.t67 a_5396_8177.t87 AVDD.t148 pfet_03v3 ad=0.84p pd=2.84u as=0.84p ps=2.84u w=2u l=2u
X3 a_n11737_n15980.t23 IREF.t44 AVDD.t1640 AVDD.t875 pfet_03v3 ad=1.3p pd=5.3u as=0.84p ps=2.84u w=2u l=2u
X4 AVDD.t1641 IREF.t45 a_n13990_8177.t273 AVDD.t53 pfet_03v3 ad=0.84p pd=2.84u as=0.84p ps=2.84u w=2u l=2u
X5 a_5396_8177.t174 a_n11317_n20927.t1 a_5396_n6451.t16 AVDD.t88 pfet_03v3 ad=0.84p pd=2.84u as=0.84p ps=2.84u w=2u l=2u
X6 AVDD.t1278 AVDD.t1277 AVDD.t1278 AVDD.t111 pfet_03v3 ad=0.84p pd=2.84u as=0 ps=0 w=2u l=2u
X7 a_5396_8177.t86 a_5396_n6451.t68 AVDD.t1377 AVDD.t156 pfet_03v3 ad=0.84p pd=2.84u as=1.3p ps=5.3u w=2u l=2u
X8 AVDD.t1276 AVDD.t1275 AVDD.t1276 AVDD.t373 pfet_03v3 ad=0.78p pd=3.7u as=0 ps=0 w=1.2u l=2u
X9 AVDD.t1642 IREF.t46 a_n13990_8177.t272 AVDD.t33 pfet_03v3 ad=0.84p pd=2.84u as=1.3p ps=5.3u w=2u l=2u
X10 AVDD.t1643 IREF.t47 a_n13990_8177.t271 AVDD.t141 pfet_03v3 ad=0.84p pd=2.84u as=0.84p ps=2.84u w=2u l=2u
X11 a_n13990_8177.t1 VP.t0 a_n13990_n6451.t141 AVDD.t186 pfet_03v3 ad=0.84p pd=2.84u as=0.84p ps=2.84u w=2u l=2u
X12 a_n13990_n5465.t112 VN.t0 a_n13990_8177.t303 AVDD.t93 pfet_03v3 ad=1.3p pd=5.3u as=0.84p ps=2.84u w=2u l=2u
X13 VOUT.t87 a_n11317_n20927.t1 a_5396_9163.t137 AVDD.t200 pfet_03v3 ad=1.3p pd=5.3u as=0.84p ps=2.84u w=2u l=2u
X14 a_n13990_n5465.t111 VN.t1 a_n13990_8177.t304 AVDD.t93 pfet_03v3 ad=1.3p pd=5.3u as=0.84p ps=2.84u w=2u l=2u
X15 AVDD.t1644 IREF.t48 a_n13990_8177.t270 AVDD.t153 pfet_03v3 ad=0.84p pd=2.84u as=1.3p ps=5.3u w=2u l=2u
X16 a_n13990_n6451.t140 VP.t1 a_n13990_8177.t0 AVDD.t0 pfet_03v3 ad=1.3p pd=5.3u as=0.84p ps=2.84u w=2u l=2u
X17 a_5396_8177.t173 a_n11317_n20927.t1 a_5396_n6451.t16 AVDD.t88 pfet_03v3 ad=0.84p pd=2.84u as=0.84p ps=2.84u w=2u l=2u
X18 AVDD.t1274 AVDD.t1273 AVDD.t1274 AVDD.t122 pfet_03v3 ad=0.84p pd=2.84u as=0 ps=0 w=2u l=2u
X19 a_n13990_8177.t92 VP.t2 a_n13990_n6451.t139 AVDD.t186 pfet_03v3 ad=0.84p pd=2.84u as=0.84p ps=2.84u w=2u l=2u
X20 a_n13990_n5465.t110 VN.t2 a_n13990_8177.t305 AVDD.t93 pfet_03v3 ad=1.3p pd=5.3u as=0.84p ps=2.84u w=2u l=2u
X21 AVDD.t1645 IREF.t49 a_n13990_8177.t269 AVDD.t153 pfet_03v3 ad=0.84p pd=2.84u as=1.3p ps=5.3u w=2u l=2u
X22 AVDD.t1272 AVDD.t1271 AVDD.t1272 AVDD.t67 pfet_03v3 ad=1.3p pd=5.3u as=0 ps=0 w=2u l=2u
X23 AVDD.t1270 AVDD.t1269 AVDD.t1270 AVDD.t122 pfet_03v3 ad=0.84p pd=2.84u as=0 ps=0 w=2u l=2u
X24 a_n11737_n15980.t22 IREF.t50 AVDD.t1646 AVDD.t39 pfet_03v3 ad=1.3p pd=5.3u as=0.84p ps=2.84u w=2u l=2u
X25 a_n13990_8177.t268 IREF.t51 AVDD.t1647 AVDD.t36 pfet_03v3 ad=0.84p pd=2.84u as=0.84p ps=2.84u w=2u l=2u
X26 a_n13990_8177.t267 IREF.t52 AVDD.t1648 AVDD.t136 pfet_03v3 ad=0.84p pd=2.84u as=0.84p ps=2.84u w=2u l=2u
X27 AVDD.t1268 AVDD.t1267 AVDD.t1268 AVDD.t291 pfet_03v3 ad=0.84p pd=2.84u as=0 ps=0 w=2u l=2u
X28 AVDD.t1266 AVDD.t1265 AVDD.t1266 AVDD.t111 pfet_03v3 ad=0.84p pd=2.84u as=0 ps=0 w=2u l=2u
X29 AVSS.t280 AVSS.t279 AVSS.t280 AVSS.t74 nfet_03v3 ad=1.22p pd=5.22u as=0 ps=0 w=2u l=2u
X30 AVDD.t1378 a_5396_n6451.t69 a_5396_9163.t87 AVDD.t226 pfet_03v3 ad=0.84p pd=2.84u as=1.3p ps=5.3u w=2u l=2u
X31 AVDD.t1264 AVDD.t1263 AVDD.t1264 AVDD.t399 pfet_03v3 ad=0.84p pd=2.84u as=0 ps=0 w=2u l=2u
X32 a_5396_9163.t86 a_5396_n6451.t70 AVDD.t1528 AVDD.t44 pfet_03v3 ad=1.3p pd=5.3u as=0.84p ps=2.84u w=2u l=2u
X33 a_5396_9163.t85 a_5396_n6451.t71 AVDD.t1529 AVDD.t193 pfet_03v3 ad=1.3p pd=5.3u as=0.84p ps=2.84u w=2u l=2u
X34 AVDD.t1262 AVDD.t1261 AVDD.t1262 AVDD.t62 pfet_03v3 ad=1.3p pd=5.3u as=0 ps=0 w=2u l=2u
X35 AVDD.t1604 IREF.t42 IREF.t43 AVDD.t555 pfet_03v3 ad=0.84p pd=2.84u as=0.84p ps=2.84u w=2u l=2u
X36 AVDD.t1260 AVDD.t1259 AVDD.t1260 AVDD.t53 pfet_03v3 ad=0.84p pd=2.84u as=0 ps=0 w=2u l=2u
X37 AVDD.t1530 a_5396_n6451.t72 a_5396_9163.t84 AVDD.t22 pfet_03v3 ad=0.84p pd=2.84u as=1.3p ps=5.3u w=2u l=2u
X38 AVDD.t1649 IREF.t53 a_n13990_8177.t266 AVDD.t33 pfet_03v3 ad=0.84p pd=2.84u as=1.3p ps=5.3u w=2u l=2u
X39 VOUT.t86 a_n11317_n20927.t1 a_5396_9163.t136 AVDD.t88 pfet_03v3 ad=0.84p pd=2.84u as=0.84p ps=2.84u w=2u l=2u
X40 AVDD.t1258 AVDD.t1257 AVDD.t1258 AVDD.t79 pfet_03v3 ad=1.3p pd=5.3u as=0 ps=0 w=2u l=2u
X41 a_n13990_n6451.t138 VP.t3 a_n13990_8177.t47 AVDD.t85 pfet_03v3 ad=0.84p pd=2.84u as=0.84p ps=2.84u w=2u l=2u
X42 a_5396_n6451.t20 a_n11317_n20927.t1 a_5396_8177.t172 AVDD.t291 pfet_03v3 ad=0.84p pd=2.84u as=0.84p ps=2.84u w=2u l=2u
X43 a_n11737_n15980.t21 IREF.t54 AVDD.t1650 AVDD.t717 pfet_03v3 ad=0.84p pd=2.84u as=0.84p ps=2.84u w=2u l=2u
X44 AVSS.t278 AVSS.t277 AVSS.t278 AVSS.t1 nfet_03v3 ad=0.732p pd=3.62u as=0 ps=0 w=1.2u l=2u
X45 AVSS.t276 AVSS.t275 AVSS.t276 AVSS.t49 nfet_03v3 ad=1.22p pd=5.22u as=0 ps=0 w=2u l=2u
X46 AVDD.t1651 IREF.t55 a_n11737_n14973.t29 AVDD.t810 pfet_03v3 ad=0.84p pd=2.84u as=1.3p ps=5.3u w=2u l=2u
X47 AVDD.t1256 AVDD.t1255 AVDD.t1256 AVDD.t67 pfet_03v3 ad=1.3p pd=5.3u as=0 ps=0 w=2u l=2u
X48 a_n13990_n5465.t109 VN.t3 a_n13990_8177.t306 AVDD.t30 pfet_03v3 ad=0.84p pd=2.84u as=0.84p ps=2.84u w=2u l=2u
X49 AVDD.t1254 AVDD.t1253 AVDD.t1254 AVDD.t381 pfet_03v3 ad=0.84p pd=2.84u as=0 ps=0 w=2u l=2u
X50 AVDD.t1252 AVDD.t1251 AVDD.t1252 AVDD.t875 pfet_03v3 ad=0.84p pd=2.84u as=0 ps=0 w=2u l=2u
X51 AVSS.t338 a_n11737_n14973.t30 a_n13990_n5465.t23 AVSS.t82 nfet_03v3 ad=0.8p pd=2.8u as=1.22p ps=5.22u w=2u l=2u
X52 AVDD.t1250 AVDD.t1249 AVDD.t1250 AVDD.t8 pfet_03v3 ad=1.3p pd=5.3u as=0 ps=0 w=2u l=2u
X53 AVDD.t1248 AVDD.t1247 AVDD.t1248 AVDD.t378 pfet_03v3 ad=0.84p pd=2.84u as=0 ps=0 w=2u l=2u
X54 a_n13990_n5465.t24 a_n11737_n14973.t31 AVSS.t339 AVSS.t163 nfet_03v3 ad=0.8p pd=2.8u as=0.8p ps=2.8u w=2u l=2u
X55 a_5396_8177.t171 a_n11317_n20927.t1 a_5396_n6451.t19 AVDD.t22 pfet_03v3 ad=0.84p pd=2.84u as=1.3p ps=5.3u w=2u l=2u
X56 AVSS.t274 AVSS.t273 AVSS.t274 AVSS.t55 nfet_03v3 ad=1.22p pd=5.22u as=0 ps=0 w=2u l=2u
X57 a_5396_8177.t85 a_5396_n6451.t73 AVDD.t1531 AVDD.t291 pfet_03v3 ad=0.84p pd=2.84u as=0.84p ps=2.84u w=2u l=2u
X58 a_n1533_n15598# a_n11317_n20927.t3 a_n2101_n15598# AVDD.t394 pfet_03v3 ad=0.504p pd=2.04u as=0.504p ps=2.04u w=1.2u l=2u
X59 a_5396_8177.t84 a_5396_n6451.t74 AVDD.t1532 AVDD.t122 pfet_03v3 ad=0.84p pd=2.84u as=0.84p ps=2.84u w=2u l=2u
X60 AVDD.t1533 a_5396_n6451.t75 a_5396_9163.t83 AVDD.t241 pfet_03v3 ad=0.84p pd=2.84u as=1.3p ps=5.3u w=2u l=2u
X61 a_n13990_8177.t265 IREF.t56 AVDD.t1652 AVDD.t238 pfet_03v3 ad=1.3p pd=5.3u as=0.84p ps=2.84u w=2u l=2u
X62 AVDD.t1246 AVDD.t1245 AVDD.t1246 AVDD.t62 pfet_03v3 ad=1.3p pd=5.3u as=0 ps=0 w=2u l=2u
X63 VOUT.t85 a_n11317_n20927.t1 a_5396_9163.t143 AVDD.t178 pfet_03v3 ad=1.3p pd=5.3u as=0.84p ps=2.84u w=2u l=2u
X64 a_5396_8177.t170 a_n11317_n20927.t1 a_5396_n6451.t18 AVDD.t19 pfet_03v3 ad=0.84p pd=2.84u as=0.84p ps=2.84u w=2u l=2u
X65 AVDD.t1244 AVDD.t1243 AVDD.t1244 AVDD.t255 pfet_03v3 ad=0.84p pd=2.84u as=0 ps=0 w=2u l=2u
X66 a_n13990_n5465.t15 a_n11737_n14973.t32 AVSS.t321 AVSS.t158 nfet_03v3 ad=1.22p pd=5.22u as=0.8p ps=2.8u w=2u l=2u
X67 AVDD.t1653 IREF.t57 a_n11737_n15980.t20 AVDD.t810 pfet_03v3 ad=0.84p pd=2.84u as=1.3p ps=5.3u w=2u l=2u
X68 a_n13990_n5465.t16 a_n11737_n14973.t33 AVSS.t322 AVSS.t155 nfet_03v3 ad=0.8p pd=2.8u as=1.22p ps=5.22u w=2u l=2u
X69 a_n13990_n5465.t108 VN.t4 a_n13990_8177.t317 AVDD.t30 pfet_03v3 ad=0.84p pd=2.84u as=0.84p ps=2.84u w=2u l=2u
X70 AVDD.t1242 AVDD.t1241 AVDD.t1242 AVDD.t53 pfet_03v3 ad=0.84p pd=2.84u as=0 ps=0 w=2u l=2u
X71 a_n13990_8177.t264 IREF.t58 AVDD.t1654 AVDD.t0 pfet_03v3 ad=1.3p pd=5.3u as=0.84p ps=2.84u w=2u l=2u
X72 AVDD.t1655 IREF.t59 a_n13990_8177.t263 AVDD.t82 pfet_03v3 ad=0.84p pd=2.84u as=1.3p ps=5.3u w=2u l=2u
X73 a_5396_n6451.t17 a_n11317_n20927.t1 a_5396_8177.t169 AVDD.t338 pfet_03v3 ad=1.3p pd=5.3u as=0.84p ps=2.84u w=2u l=2u
X74 a_5396_n6451.t16 a_n11317_n20927.t1 a_5396_8177.t168 AVDD.t59 pfet_03v3 ad=0.84p pd=2.84u as=1.3p ps=5.3u w=2u l=2u
X75 a_5396_9163.t142 a_n11317_n20927.t1 VOUT.t84 AVDD.t279 pfet_03v3 ad=0.84p pd=2.84u as=0.84p ps=2.84u w=2u l=2u
X76 AVSS.t272 AVSS.t271 AVSS.t272 AVSS.t25 nfet_03v3 ad=1.22p pd=5.22u as=0 ps=0 w=2u l=2u
X77 a_n13990_n5465.t17 a_n11737_n14973.t34 AVSS.t323 AVSS.t52 nfet_03v3 ad=0.8p pd=2.8u as=0.8p ps=2.8u w=2u l=2u
X78 a_n13990_n6451.t48 a_n11737_n15980.t24 a_5396_n6451.t65 AVSS.t103 nfet_03v3 ad=0.8p pd=2.8u as=0.8p ps=2.8u w=2u l=2u
X79 a_n11317_n20927.t1 a_n11737_n14973.t35 AVSS.t324 AVSS.t31 nfet_03v3 ad=1.3725p pd=5.72u as=0.9p ps=3.05u w=2.25u l=2u
X80 AVDD.t1240 AVDD.t1239 AVDD.t1240 AVDD.t233 pfet_03v3 ad=1.3p pd=5.3u as=0 ps=0 w=2u l=2u
X81 VOUT.t83 a_n11317_n20927.t1 a_5396_9163.t157 AVDD.t178 pfet_03v3 ad=1.3p pd=5.3u as=0.84p ps=2.84u w=2u l=2u
X82 a_n13990_8177.t279 VP.t4 a_n13990_n6451.t137 AVDD.t255 pfet_03v3 ad=0.84p pd=2.84u as=0.84p ps=2.84u w=2u l=2u
X83 AVDD.t1238 AVDD.t1237 AVDD.t1238 AVDD.t56 pfet_03v3 ad=1.3p pd=5.3u as=0 ps=0 w=2u l=2u
X84 AVDD.t1236 AVDD.t1235 AVDD.t1236 AVDD.t8 pfet_03v3 ad=1.3p pd=5.3u as=0 ps=0 w=2u l=2u
X85 a_5396_n6451.t15 a_n11317_n20927.t1 a_5396_8177.t167 AVDD.t44 pfet_03v3 ad=1.3p pd=5.3u as=0.84p ps=2.84u w=2u l=2u
X86 AVDD.t1534 a_5396_n6451.t76 a_5396_8177.t83 AVDD.t88 pfet_03v3 ad=0.84p pd=2.84u as=0.84p ps=2.84u w=2u l=2u
X87 a_n13990_8177.t262 IREF.t60 AVDD.t1656 AVDD.t85 pfet_03v3 ad=0.84p pd=2.84u as=0.84p ps=2.84u w=2u l=2u
X88 a_5396_9163.t156 a_n11317_n20927.t1 VOUT.t82 AVDD.t279 pfet_03v3 ad=0.84p pd=2.84u as=0.84p ps=2.84u w=2u l=2u
X89 AVDD.t1234 AVDD.t1233 AVDD.t1234 AVDD.t88 pfet_03v3 ad=0.84p pd=2.84u as=0 ps=0 w=2u l=2u
X90 a_5396_n6451.t16 a_n11317_n20927.t1 a_5396_8177.t166 AVDD.t59 pfet_03v3 ad=0.84p pd=2.84u as=1.3p ps=5.3u w=2u l=2u
X91 AVDD.t1232 AVDD.t1231 AVDD.t1232 AVDD.t85 pfet_03v3 ad=0.84p pd=2.84u as=0 ps=0 w=2u l=2u
X92 a_5396_8177.t82 a_5396_n6451.t77 AVDD.t1535 AVDD.t111 pfet_03v3 ad=0.84p pd=2.84u as=0.84p ps=2.84u w=2u l=2u
X93 AVDD.t1536 a_5396_n6451.t78 a_5396_9163.t82 AVDD.t59 pfet_03v3 ad=0.84p pd=2.84u as=1.3p ps=5.3u w=2u l=2u
X94 AVDD.t1230 AVDD.t1229 AVDD.t1230 AVDD.t347 pfet_03v3 ad=1.3p pd=5.3u as=0 ps=0 w=2u l=2u
X95 AVDD.t1537 a_5396_n6451.t79 a_5396_9163.t81 AVDD.t381 pfet_03v3 ad=1.3p pd=5.3u as=0.84p ps=2.84u w=2u l=2u
X96 a_n13990_8177.t280 VP.t5 a_n13990_n6451.t136 AVDD.t33 pfet_03v3 ad=0.84p pd=2.84u as=1.3p ps=5.3u w=2u l=2u
X97 AVDD.t1228 AVDD.t1227 AVDD.t1228 AVDD.t98 pfet_03v3 ad=0.84p pd=2.84u as=0 ps=0 w=2u l=2u
X98 AVDD.t1226 AVDD.t1225 AVDD.t1226 AVDD.t70 pfet_03v3 ad=1.3p pd=5.3u as=0 ps=0 w=2u l=2u
X99 AVDD.t1580 IREF.t61 a_n13990_8177.t261 AVDD.t255 pfet_03v3 ad=0.84p pd=2.84u as=0.84p ps=2.84u w=2u l=2u
X100 AVDD.t1581 IREF.t62 a_n13990_8177.t260 AVDD.t233 pfet_03v3 ad=0.84p pd=2.84u as=1.3p ps=5.3u w=2u l=2u
X101 AVDD.t1224 AVDD.t1223 AVDD.t1224 AVDD.t347 pfet_03v3 ad=1.3p pd=5.3u as=0 ps=0 w=2u l=2u
X102 a_n13990_8177.t259 IREF.t63 AVDD.t1582 AVDD.t205 pfet_03v3 ad=1.3p pd=5.3u as=0.84p ps=2.84u w=2u l=2u
X103 a_5396_9163.t80 a_5396_n6451.t80 AVDD.t1538 AVDD.t291 pfet_03v3 ad=0.84p pd=2.84u as=0.84p ps=2.84u w=2u l=2u
X104 a_5396_n6451.t24 a_n11317_n20927.t1 a_5396_8177.t165 AVDD.t119 pfet_03v3 ad=0.84p pd=2.84u as=0.84p ps=2.84u w=2u l=2u
X105 a_5396_8177.t164 a_n11317_n20927.t1 a_5396_n6451.t49 AVDD.t226 pfet_03v3 ad=0.84p pd=2.84u as=1.3p ps=5.3u w=2u l=2u
X106 AVDD.t1222 AVDD.t1221 AVDD.t1222 AVDD.t366 pfet_03v3 ad=0.84p pd=2.84u as=0 ps=0 w=2u l=2u
X107 AVSS.t270 AVSS.t269 AVSS.t270 AVSS.t40 nfet_03v3 ad=0.8p pd=2.8u as=0 ps=0 w=2u l=2u
X108 AVDD.t1220 AVDD.t1219 AVDD.t1220 AVDD.t79 pfet_03v3 ad=1.3p pd=5.3u as=0 ps=0 w=2u l=2u
X109 AVDD.t1218 AVDD.t1217 AVDD.t1218 AVDD.t338 pfet_03v3 ad=0.84p pd=2.84u as=0 ps=0 w=2u l=2u
X110 a_n1533_n16323# a_n11317_n20927.t1 a_n2101_n16323# AVDD.t394 pfet_03v3 ad=0.504p pd=2.04u as=0.504p ps=2.04u w=1.2u l=2u
X111 a_n13990_8177.t258 IREF.t64 AVDD.t1583 AVDD.t233 pfet_03v3 ad=0.84p pd=2.84u as=1.3p ps=5.3u w=2u l=2u
X112 AVSS.t268 AVSS.t267 AVSS.t268 AVSS.t235 nfet_03v3 ad=0.8p pd=2.8u as=0 ps=0 w=2u l=2u
X113 VOUT.t81 a_n11317_n20927.t1 a_5396_9163.t147 AVDD.t44 pfet_03v3 ad=1.3p pd=5.3u as=0.84p ps=2.84u w=2u l=2u
X114 AVDD.t1216 AVDD.t1215 AVDD.t1216 AVDD.t294 pfet_03v3 ad=0.84p pd=2.84u as=0 ps=0 w=2u l=2u
X115 a_5396_9163.t79 a_5396_n6451.t81 AVDD.t1539 AVDD.t193 pfet_03v3 ad=1.3p pd=5.3u as=0.84p ps=2.84u w=2u l=2u
X116 AVDD.t1214 AVDD.t1213 AVDD.t1214 AVDD.t347 pfet_03v3 ad=1.3p pd=5.3u as=0 ps=0 w=2u l=2u
X117 AVDD.t1584 IREF.t65 a_n13990_8177.t257 AVDD.t186 pfet_03v3 ad=0.84p pd=2.84u as=0.84p ps=2.84u w=2u l=2u
X118 AVDD.t1212 AVDD.t1211 AVDD.t1212 AVDD.t5 pfet_03v3 ad=0.84p pd=2.84u as=0 ps=0 w=2u l=2u
X119 AVDD.t1210 AVDD.t1209 AVDD.t1210 AVDD.t294 pfet_03v3 ad=0.84p pd=2.84u as=0 ps=0 w=2u l=2u
X120 AVDD.t1208 AVDD.t1207 AVDD.t1208 AVDD.t335 pfet_03v3 ad=1.3p pd=5.3u as=0 ps=0 w=2u l=2u
X121 IREF.t41 IREF.t40 AVDD.t1603 AVDD.t480 pfet_03v3 ad=0.84p pd=2.84u as=0.84p ps=2.84u w=2u l=2u
X122 a_n11737_n14973.t28 IREF.t66 AVDD.t1585 AVDD.t323 pfet_03v3 ad=0.84p pd=2.84u as=0.84p ps=2.84u w=2u l=2u
X123 AVDD.t1206 AVDD.t1205 AVDD.t1206 AVDD.t16 pfet_03v3 ad=1.3p pd=5.3u as=0 ps=0 w=2u l=2u
X124 a_n13990_n6451.t135 VP.t6 a_n13990_8177.t281 AVDD.t93 pfet_03v3 ad=1.3p pd=5.3u as=0.84p ps=2.84u w=2u l=2u
X125 AVDD.t1204 AVDD.t1203 AVDD.t1204 AVDD.t810 pfet_03v3 ad=1.3p pd=5.3u as=0 ps=0 w=2u l=2u
X126 AVDD.t1202 AVDD.t1201 AVDD.t1202 AVDD.t399 pfet_03v3 ad=0.84p pd=2.84u as=0 ps=0 w=2u l=2u
X127 AVDD.t1586 IREF.t67 a_n13990_8177.t256 AVDD.t98 pfet_03v3 ad=0.84p pd=2.84u as=0.84p ps=2.84u w=2u l=2u
X128 AVDD.t1587 IREF.t68 a_n11737_n15980.t19 AVDD.t638 pfet_03v3 ad=0.84p pd=2.84u as=1.3p ps=5.3u w=2u l=2u
X129 AVDD.t1588 IREF.t69 a_n13990_8177.t255 AVDD.t238 pfet_03v3 ad=1.3p pd=5.3u as=0.84p ps=2.84u w=2u l=2u
X130 VOUT.t80 a_n11317_n20927.t1 a_5396_9163.t146 AVDD.t44 pfet_03v3 ad=1.3p pd=5.3u as=0.84p ps=2.84u w=2u l=2u
X131 a_5396_9163.t78 a_5396_n6451.t82 AVDD.t1540 AVDD.t44 pfet_03v3 ad=1.3p pd=5.3u as=0.84p ps=2.84u w=2u l=2u
X132 AVDD.t1200 AVDD.t1199 AVDD.t1200 AVDD.t44 pfet_03v3 ad=0.84p pd=2.84u as=0 ps=0 w=2u l=2u
X133 AVDD.t1589 IREF.t70 a_n13990_8177.t254 AVDD.t53 pfet_03v3 ad=0.84p pd=2.84u as=0.84p ps=2.84u w=2u l=2u
X134 AVDD.t1541 a_5396_n6451.t83 a_5396_8177.t81 AVDD.t19 pfet_03v3 ad=0.84p pd=2.84u as=0.84p ps=2.84u w=2u l=2u
X135 AVDD.t1590 IREF.t71 a_n13990_8177.t253 AVDD.t33 pfet_03v3 ad=0.84p pd=2.84u as=1.3p ps=5.3u w=2u l=2u
X136 a_n13990_8177.t252 IREF.t72 AVDD.t1591 AVDD.t36 pfet_03v3 ad=0.84p pd=2.84u as=0.84p ps=2.84u w=2u l=2u
X137 AVDD.t1592 IREF.t73 a_n13990_8177.t251 AVDD.t255 pfet_03v3 ad=0.84p pd=2.84u as=0.84p ps=2.84u w=2u l=2u
X138 a_n13990_n6451.t11 a_n11737_n14973.t36 AVSS.t299 AVSS.t144 nfet_03v3 ad=1.22p pd=5.22u as=0.8p ps=2.8u w=2u l=2u
X139 a_n2101_n15598# a_n11317_n20927.t3 a_n2631_n16323# AVDD.t328 pfet_03v3 ad=0.504p pd=2.04u as=0.78p ps=3.7u w=1.2u l=2u
X140 a_n13990_n6451.t12 a_n11737_n14973.t37 AVSS.t300 AVSS.t141 nfet_03v3 ad=0.8p pd=2.8u as=1.22p ps=5.22u w=2u l=2u
X141 AVDD.t1198 AVDD.t1197 AVDD.t1198 AVDD.t33 pfet_03v3 ad=1.3p pd=5.3u as=0 ps=0 w=2u l=2u
X142 AVDD.t1196 AVDD.t1195 AVDD.t1196 AVDD.t62 pfet_03v3 ad=1.3p pd=5.3u as=0 ps=0 w=2u l=2u
X143 AVDD.t1194 AVDD.t1193 AVDD.t1194 AVDD.t175 pfet_03v3 ad=0.84p pd=2.84u as=0 ps=0 w=2u l=2u
X144 AVDD.t1192 AVDD.t1191 AVDD.t1192 AVDD.t114 pfet_03v3 ad=1.3p pd=5.3u as=0 ps=0 w=2u l=2u
X145 AVDD.t1593 IREF.t74 a_n13990_8177.t250 AVDD.t153 pfet_03v3 ad=0.84p pd=2.84u as=1.3p ps=5.3u w=2u l=2u
X146 AVDD.t1190 AVDD.t1189 AVDD.t1190 AVDD.t381 pfet_03v3 ad=0.84p pd=2.84u as=0 ps=0 w=2u l=2u
X147 AVDD.t1188 AVDD.t1187 AVDD.t1188 AVDD.t114 pfet_03v3 ad=1.3p pd=5.3u as=0 ps=0 w=2u l=2u
X148 AVDD.t1186 AVDD.t1185 AVDD.t1186 AVDD.t378 pfet_03v3 ad=0.84p pd=2.84u as=0 ps=0 w=2u l=2u
X149 AVDD.t1542 a_5396_n6451.t84 a_5396_8177.t80 AVDD.t22 pfet_03v3 ad=0.84p pd=2.84u as=1.3p ps=5.3u w=2u l=2u
X150 a_n13990_8177.t249 IREF.t75 AVDD.t1594 AVDD.t233 pfet_03v3 ad=0.84p pd=2.84u as=1.3p ps=5.3u w=2u l=2u
X151 a_5396_n6451.t48 a_n11317_n20927.t1 a_5396_8177.t163 AVDD.t291 pfet_03v3 ad=0.84p pd=2.84u as=0.84p ps=2.84u w=2u l=2u
X152 AVDD.t1184 AVDD.t1183 AVDD.t1184 AVDD.t264 pfet_03v3 ad=0.504p pd=2.04u as=0 ps=0 w=1.2u l=2u
X153 AVDD.t1182 AVDD.t1181 AVDD.t1182 AVDD.t399 pfet_03v3 ad=0.84p pd=2.84u as=0 ps=0 w=2u l=2u
X154 a_n13990_n5465.t126 a_n11737_n15980.t25 VOUT.t105 AVSS.t88 nfet_03v3 ad=1.22p pd=5.22u as=0.8p ps=2.8u w=2u l=2u
X155 a_n13990_n5465.t125 a_n11737_n15980.t26 VOUT.t104 AVSS.t85 nfet_03v3 ad=0.8p pd=2.8u as=1.22p ps=5.22u w=2u l=2u
X156 AVDD.t1595 IREF.t76 a_n11737_n15980.t18 AVDD.t366 pfet_03v3 ad=0.84p pd=2.84u as=0.84p ps=2.84u w=2u l=2u
X157 a_n13990_8177.t248 IREF.t77 AVDD.t1596 AVDD.t36 pfet_03v3 ad=0.84p pd=2.84u as=0.84p ps=2.84u w=2u l=2u
X158 a_5396_8177.t162 a_n11317_n20927.t1 a_5396_n6451.t47 AVDD.t88 pfet_03v3 ad=0.84p pd=2.84u as=0.84p ps=2.84u w=2u l=2u
X159 VOUT.t79 a_n11317_n20927.t1 a_5396_9163.t101 AVDD.t291 pfet_03v3 ad=0.84p pd=2.84u as=0.84p ps=2.84u w=2u l=2u
X160 a_n13990_n5465.t107 VN.t5 a_n13990_8177.t318 AVDD.t85 pfet_03v3 ad=0.84p pd=2.84u as=0.84p ps=2.84u w=2u l=2u
X161 AVDD.t1180 AVDD.t1179 AVDD.t1180 AVDD.t148 pfet_03v3 ad=0.84p pd=2.84u as=0 ps=0 w=2u l=2u
X162 IREF.t39 IREF.t38 AVDD.t1602 AVDD.t717 pfet_03v3 ad=0.84p pd=2.84u as=0.84p ps=2.84u w=2u l=2u
X163 AVDD.t1178 AVDD.t1177 AVDD.t1178 AVDD.t70 pfet_03v3 ad=1.3p pd=5.3u as=0 ps=0 w=2u l=2u
X164 a_n13990_8177.t247 IREF.t78 AVDD.t1674 AVDD.t136 pfet_03v3 ad=0.84p pd=2.84u as=0.84p ps=2.84u w=2u l=2u
X165 AVDD.t1176 AVDD.t1175 AVDD.t1176 AVDD.t156 pfet_03v3 ad=1.3p pd=5.3u as=0 ps=0 w=2u l=2u
X166 AVSS.t266 AVSS.t265 AVSS.t266 AVSS.t28 nfet_03v3 ad=0.732p pd=3.62u as=0 ps=0 w=1.2u l=2u
X167 AVDD.t1675 IREF.t79 a_n13990_8177.t246 AVDD.t98 pfet_03v3 ad=0.84p pd=2.84u as=0.84p ps=2.84u w=2u l=2u
X168 AVDD.t1543 a_5396_n6451.t85 a_5396_8177.t79 AVDD.t226 pfet_03v3 ad=0.84p pd=2.84u as=1.3p ps=5.3u w=2u l=2u
X169 a_5396_8177.t78 a_5396_n6451.t86 AVDD.t1544 AVDD.t193 pfet_03v3 ad=1.3p pd=5.3u as=0.84p ps=2.84u w=2u l=2u
X170 AVDD.t1174 AVDD.t1173 AVDD.t1174 AVDD.t141 pfet_03v3 ad=0.84p pd=2.84u as=0 ps=0 w=2u l=2u
X171 a_n13990_8177.t282 VP.t7 a_n13990_n6451.t134 AVDD.t33 pfet_03v3 ad=0.84p pd=2.84u as=1.3p ps=5.3u w=2u l=2u
X172 AVDD.t1545 a_5396_n6451.t87 a_5396_9163.t77 AVDD.t175 pfet_03v3 ad=0.84p pd=2.84u as=0.84p ps=2.84u w=2u l=2u
X173 AVDD.t1546 a_5396_n6451.t88 a_5396_8177.t77 AVDD.t22 pfet_03v3 ad=0.84p pd=2.84u as=1.3p ps=5.3u w=2u l=2u
X174 AVDD.t1172 AVDD.t1171 AVDD.t1172 AVDD.t381 pfet_03v3 ad=0.84p pd=2.84u as=0 ps=0 w=2u l=2u
X175 AVDD.t1170 AVDD.t1169 AVDD.t1170 AVDD.t378 pfet_03v3 ad=0.84p pd=2.84u as=0 ps=0 w=2u l=2u
X176 a_5396_8177.t161 a_n11317_n20927.t1 a_5396_n6451.t47 AVDD.t88 pfet_03v3 ad=0.84p pd=2.84u as=0.84p ps=2.84u w=2u l=2u
X177 a_n13990_n5465.t106 VN.t6 a_n13990_8177.t319 AVDD.t85 pfet_03v3 ad=0.84p pd=2.84u as=0.84p ps=2.84u w=2u l=2u
X178 VOUT.t78 a_n11317_n20927.t1 a_5396_9163.t100 AVDD.t291 pfet_03v3 ad=0.84p pd=2.84u as=0.84p ps=2.84u w=2u l=2u
X179 AVDD.t1676 IREF.t80 a_n11737_n14973.t27 AVDD.t717 pfet_03v3 ad=0.84p pd=2.84u as=0.84p ps=2.84u w=2u l=2u
X180 AVSS.t264 AVSS.t263 AVSS.t264 AVSS.t22 nfet_03v3 ad=0.8p pd=2.8u as=0 ps=0 w=2u l=2u
X181 AVSS.t262 AVSS.t261 AVSS.t262 AVSS.t16 nfet_03v3 ad=1.22p pd=5.22u as=0 ps=0 w=2u l=2u
X182 AVSS.t260 AVSS.t259 AVSS.t260 AVSS.t19 nfet_03v3 ad=0.8p pd=2.8u as=0 ps=0 w=2u l=2u
X183 AVDD.t1168 AVDD.t1167 AVDD.t1168 AVDD.t294 pfet_03v3 ad=0.84p pd=2.84u as=0 ps=0 w=2u l=2u
X184 a_5396_9163.t173 a_n11317_n20927.t1 VOUT.t77 AVDD.t200 pfet_03v3 ad=1.3p pd=5.3u as=0.84p ps=2.84u w=2u l=2u
X185 AVDD.t1677 IREF.t81 a_n11737_n14973.t26 AVDD.t282 pfet_03v3 ad=0.84p pd=2.84u as=1.3p ps=5.3u w=2u l=2u
X186 a_5396_9163.t172 a_n11317_n20927.t1 VOUT.t76 AVDD.t19 pfet_03v3 ad=0.84p pd=2.84u as=0.84p ps=2.84u w=2u l=2u
X187 a_n13990_n6451.t133 VP.t8 a_n13990_8177.t327 AVDD.t30 pfet_03v3 ad=0.84p pd=2.84u as=0.84p ps=2.84u w=2u l=2u
X188 a_n13990_8177.t328 VP.t9 a_n13990_n6451.t132 AVDD.t255 pfet_03v3 ad=0.84p pd=2.84u as=0.84p ps=2.84u w=2u l=2u
X189 a_n2101_n16323# a_n11317_n20927.t1 a_n2631_n16323# AVDD.t328 pfet_03v3 ad=0.504p pd=2.04u as=0.78p ps=3.7u w=1.2u l=2u
X190 a_5396_n6451.t46 a_n11317_n20927.t1 a_5396_8177.t160 AVDD.t338 pfet_03v3 ad=1.3p pd=5.3u as=0.84p ps=2.84u w=2u l=2u
X191 VOUT.t75 a_n11317_n20927.t1 a_5396_9163.t127 AVDD.t338 pfet_03v3 ad=1.3p pd=5.3u as=0.84p ps=2.84u w=2u l=2u
X192 AVDD.t1547 a_5396_n6451.t89 a_5396_8177.t76 AVDD.t148 pfet_03v3 ad=0.84p pd=2.84u as=0.84p ps=2.84u w=2u l=2u
X193 a_5396_9163.t76 a_5396_n6451.t90 AVDD.t1548 AVDD.t291 pfet_03v3 ad=0.84p pd=2.84u as=0.84p ps=2.84u w=2u l=2u
X194 AVSS.t301 a_n11737_n14973.t38 a_n13990_n6451.t13 AVSS.t52 nfet_03v3 ad=0.8p pd=2.8u as=0.8p ps=2.8u w=2u l=2u
X195 a_n6139_n21443# a_n11737_n15980.t27 a_n6661_n21443# AVSS.t178 nfet_03v3 ad=0.48p pd=2u as=0.732p ps=3.62u w=1.2u l=2u
X196 a_5396_9163.t75 a_5396_n6451.t91 AVDD.t1549 AVDD.t122 pfet_03v3 ad=0.84p pd=2.84u as=0.84p ps=2.84u w=2u l=2u
X197 a_n13990_n5465.t130 a_n11737_n15980.t28 VOUT.t103 AVSS.t103 nfet_03v3 ad=0.8p pd=2.8u as=0.8p ps=2.8u w=2u l=2u
X198 AVDD.t1166 AVDD.t1165 AVDD.t1166 AVDD.t335 pfet_03v3 ad=1.3p pd=5.3u as=0 ps=0 w=2u l=2u
X199 a_5396_8177.t75 a_5396_n6451.t92 AVDD.t1550 AVDD.t111 pfet_03v3 ad=0.84p pd=2.84u as=0.84p ps=2.84u w=2u l=2u
X200 AVDD.t1164 AVDD.t1163 AVDD.t1164 AVDD.t291 pfet_03v3 ad=0.84p pd=2.84u as=0 ps=0 w=2u l=2u
X201 a_5396_n6451.t45 a_n11317_n20927.t1 a_5396_8177.t159 AVDD.t178 pfet_03v3 ad=1.3p pd=5.3u as=0.84p ps=2.84u w=2u l=2u
X202 AVDD.t1162 AVDD.t1161 AVDD.t1162 AVDD.t279 pfet_03v3 ad=0.84p pd=2.84u as=0 ps=0 w=2u l=2u
X203 AVDD.t1678 IREF.t82 a_n13990_8177.t245 AVDD.t141 pfet_03v3 ad=0.84p pd=2.84u as=0.84p ps=2.84u w=2u l=2u
X204 AVSS.t302 a_n11737_n14973.t39 a_n13990_n6451.t14 AVSS.t114 nfet_03v3 ad=1.22p pd=5.22u as=0.8p ps=2.8u w=2u l=2u
X205 a_5396_9163.t126 a_n11317_n20927.t1 VOUT.t74 AVDD.t19 pfet_03v3 ad=0.84p pd=2.84u as=0.84p ps=2.84u w=2u l=2u
X206 a_n13990_8177.t320 VN.t7 a_n13990_n5465.t105 AVDD.t255 pfet_03v3 ad=0.84p pd=2.84u as=0.84p ps=2.84u w=2u l=2u
X207 AVDD.t1160 AVDD.t1159 AVDD.t1160 AVDD.t347 pfet_03v3 ad=1.3p pd=5.3u as=0 ps=0 w=2u l=2u
X208 VOUT.t73 a_n11317_n20927.t1 a_5396_9163.t91 AVDD.t44 pfet_03v3 ad=1.3p pd=5.3u as=0.84p ps=2.84u w=2u l=2u
X209 a_n13990_8177.t321 VN.t8 a_n13990_n5465.t104 AVDD.t233 pfet_03v3 ad=0.84p pd=2.84u as=1.3p ps=5.3u w=2u l=2u
X210 AVDD.t1158 AVDD.t1157 AVDD.t1158 AVDD.t335 pfet_03v3 ad=1.3p pd=5.3u as=0 ps=0 w=2u l=2u
X211 a_n13990_8177.t244 IREF.t83 AVDD.t1679 AVDD.t0 pfet_03v3 ad=1.3p pd=5.3u as=0.84p ps=2.84u w=2u l=2u
X212 AVSS.t258 AVSS.t257 AVSS.t258 AVSS.t222 nfet_03v3 ad=0.8p pd=2.8u as=0 ps=0 w=2u l=2u
X213 VOUT.t72 a_n11317_n20927.t1 a_5396_9163.t90 AVDD.t338 pfet_03v3 ad=1.3p pd=5.3u as=0.84p ps=2.84u w=2u l=2u
X214 AVDD.t1156 AVDD.t1155 AVDD.t1156 AVDD.t241 pfet_03v3 ad=1.3p pd=5.3u as=0 ps=0 w=2u l=2u
X215 AVDD.t1154 AVDD.t1153 AVDD.t1154 AVDD.t335 pfet_03v3 ad=1.3p pd=5.3u as=0 ps=0 w=2u l=2u
X216 AVDD.t1152 AVDD.t1151 AVDD.t1152 AVDD.t200 pfet_03v3 ad=0.84p pd=2.84u as=0 ps=0 w=2u l=2u
X217 AVDD.t1150 AVDD.t1149 AVDD.t1150 AVDD.t13 pfet_03v3 ad=0.78p pd=3.7u as=0 ps=0 w=1.2u l=2u
X218 a_n13990_8177.t347 VN.t9 a_n13990_n5465.t103 AVDD.t33 pfet_03v3 ad=0.84p pd=2.84u as=1.3p ps=5.3u w=2u l=2u
X219 AVDD.t1551 a_5396_n6451.t93 a_5396_8177.t74 AVDD.t175 pfet_03v3 ad=0.84p pd=2.84u as=0.84p ps=2.84u w=2u l=2u
X220 a_5396_9163.t167 a_n11317_n20927.t1 VOUT.t71 AVDD.t156 pfet_03v3 ad=0.84p pd=2.84u as=1.3p ps=5.3u w=2u l=2u
X221 AVDD.t1148 AVDD.t1147 AVDD.t1148 AVDD.t241 pfet_03v3 ad=1.3p pd=5.3u as=0 ps=0 w=2u l=2u
X222 AVDD.t1146 AVDD.t1145 AVDD.t1146 AVDD.t200 pfet_03v3 ad=0.84p pd=2.84u as=0 ps=0 w=2u l=2u
X223 a_n13990_n5465.t102 VN.t10 a_n13990_8177.t348 AVDD.t98 pfet_03v3 ad=0.84p pd=2.84u as=0.84p ps=2.84u w=2u l=2u
X224 a_n13990_8177.t349 VN.t11 a_n13990_n5465.t101 AVDD.t255 pfet_03v3 ad=0.84p pd=2.84u as=0.84p ps=2.84u w=2u l=2u
X225 AVDD.t1144 AVDD.t1143 AVDD.t1144 AVDD.t56 pfet_03v3 ad=1.3p pd=5.3u as=0 ps=0 w=2u l=2u
X226 VOUT.t70 a_n11317_n20927.t1 a_5396_9163.t166 AVDD.t44 pfet_03v3 ad=1.3p pd=5.3u as=0.84p ps=2.84u w=2u l=2u
X227 a_n1533_n17634# a_n11317_n20927.t1 a_n2101_n17634# AVDD.t394 pfet_03v3 ad=0.504p pd=2.04u as=0.504p ps=2.04u w=1.2u l=2u
X228 a_5396_n6451.t14 a_n11317_n20927.t1 a_5396_8177.t158 AVDD.t119 pfet_03v3 ad=0.84p pd=2.84u as=0.84p ps=2.84u w=2u l=2u
X229 AVDD.t1142 AVDD.t1141 AVDD.t1142 AVDD.t181 pfet_03v3 ad=1.3p pd=5.3u as=0 ps=0 w=2u l=2u
X230 AVSS.t256 AVSS.t255 AVSS.t256 AVSS.t28 nfet_03v3 ad=0.732p pd=3.62u as=0 ps=0 w=1.2u l=2u
X231 AVDD.t1140 AVDD.t1139 AVDD.t1140 AVDD.t241 pfet_03v3 ad=1.3p pd=5.3u as=0 ps=0 w=2u l=2u
X232 AVDD.t1138 AVDD.t1137 AVDD.t1138 AVDD.t238 pfet_03v3 ad=0.84p pd=2.84u as=0 ps=0 w=2u l=2u
X233 AVDD.t1136 AVDD.t1135 AVDD.t1136 AVDD.t252 pfet_03v3 ad=1.3p pd=5.3u as=0 ps=0 w=2u l=2u
X234 AVSS.t254 AVSS.t253 AVSS.t254 AVSS.t1 nfet_03v3 ad=0.732p pd=3.62u as=0 ps=0 w=1.2u l=2u
X235 AVSS.t334 a_n11737_n14973.t40 a_n13990_n6451.t25 AVSS.t7 nfet_03v3 ad=0.8p pd=2.8u as=0.8p ps=2.8u w=2u l=2u
X236 AVDD.t1134 AVDD.t1133 AVDD.t1134 AVDD.t141 pfet_03v3 ad=0.84p pd=2.84u as=0 ps=0 w=2u l=2u
X237 AVDD.t1132 AVDD.t1131 AVDD.t1132 AVDD.t373 pfet_03v3 ad=0.78p pd=3.7u as=0 ps=0 w=1.2u l=2u
X238 a_5396_n6451.t66 a_n11737_n15980.t29 a_n13990_n6451.t47 AVSS.t67 nfet_03v3 ad=1.22p pd=5.22u as=0.8p ps=2.8u w=2u l=2u
X239 a_n13990_8177.t350 VN.t12 a_n13990_n5465.t100 AVDD.t33 pfet_03v3 ad=0.84p pd=2.84u as=1.3p ps=5.3u w=2u l=2u
X240 a_5396_n6451.t0 a_n11737_n15980.t30 a_n13990_n6451.t46 AVSS.t64 nfet_03v3 ad=0.8p pd=2.8u as=1.22p ps=5.22u w=2u l=2u
X241 AVDD.t1130 AVDD.t1129 AVDD.t1130 AVDD.t62 pfet_03v3 ad=1.3p pd=5.3u as=0 ps=0 w=2u l=2u
X242 AVDD.t1680 IREF.t84 a_n13990_8177.t243 AVDD.t255 pfet_03v3 ad=0.84p pd=2.84u as=0.84p ps=2.84u w=2u l=2u
X243 AVDD.t1128 AVDD.t1127 AVDD.t1128 AVDD.t347 pfet_03v3 ad=1.3p pd=5.3u as=0 ps=0 w=2u l=2u
X244 AVDD.t1126 AVDD.t1125 AVDD.t1126 AVDD.t141 pfet_03v3 ad=0.84p pd=2.84u as=0 ps=0 w=2u l=2u
X245 AVDD.t1552 a_5396_n6451.t94 a_5396_9163.t74 AVDD.t148 pfet_03v3 ad=0.84p pd=2.84u as=0.84p ps=2.84u w=2u l=2u
X246 AVDD.t1681 IREF.t85 a_n13990_8177.t242 AVDD.t53 pfet_03v3 ad=0.84p pd=2.84u as=0.84p ps=2.84u w=2u l=2u
X247 AVDD.t1124 AVDD.t1123 AVDD.t1124 AVDD.t255 pfet_03v3 ad=0.84p pd=2.84u as=0 ps=0 w=2u l=2u
X248 AVDD.t1122 AVDD.t1121 AVDD.t1122 AVDD.t717 pfet_03v3 ad=0.84p pd=2.84u as=0 ps=0 w=2u l=2u
X249 AVDD.t1120 AVDD.t1119 AVDD.t1120 AVDD.t114 pfet_03v3 ad=1.3p pd=5.3u as=0 ps=0 w=2u l=2u
X250 AVDD.t1118 AVDD.t1117 AVDD.t1118 AVDD.t399 pfet_03v3 ad=0.84p pd=2.84u as=0 ps=0 w=2u l=2u
X251 AVSS.t252 AVSS.t251 AVSS.t252 AVSS.t55 nfet_03v3 ad=1.22p pd=5.22u as=0 ps=0 w=2u l=2u
X252 AVDD.t1116 AVDD.t1115 AVDD.t1116 AVDD.t79 pfet_03v3 ad=1.3p pd=5.3u as=0 ps=0 w=2u l=2u
X253 AVDD.t1114 AVDD.t1113 AVDD.t1114 AVDD.t82 pfet_03v3 ad=1.3p pd=5.3u as=0 ps=0 w=2u l=2u
X254 AVDD.t1682 IREF.t86 a_n13990_8177.t241 AVDD.t141 pfet_03v3 ad=0.84p pd=2.84u as=0.84p ps=2.84u w=2u l=2u
X255 AVDD.t1112 AVDD.t1111 AVDD.t1112 AVDD.t335 pfet_03v3 ad=1.3p pd=5.3u as=0 ps=0 w=2u l=2u
X256 AVDD.t1601 IREF.t36 IREF.t37 AVDD.t555 pfet_03v3 ad=0.84p pd=2.84u as=0.84p ps=2.84u w=2u l=2u
X257 AVDD.t1600 IREF.t34 IREF.t35 AVDD.t638 pfet_03v3 ad=0.84p pd=2.84u as=1.3p ps=5.3u w=2u l=2u
X258 AVSS.t250 AVSS.t249 AVSS.t250 AVSS.t74 nfet_03v3 ad=1.22p pd=5.22u as=0 ps=0 w=2u l=2u
X259 AVDD.t1110 AVDD.t1109 AVDD.t1110 AVDD.t399 pfet_03v3 ad=0.84p pd=2.84u as=0 ps=0 w=2u l=2u
X260 a_n13990_8177.t240 IREF.t87 AVDD.t1683 AVDD.t233 pfet_03v3 ad=0.84p pd=2.84u as=1.3p ps=5.3u w=2u l=2u
X261 a_n13990_n6451.t131 VP.t10 a_n13990_8177.t329 AVDD.t36 pfet_03v3 ad=0.84p pd=2.84u as=0.84p ps=2.84u w=2u l=2u
X262 AVDD.t1108 AVDD.t1107 AVDD.t1108 AVDD.t226 pfet_03v3 ad=1.3p pd=5.3u as=0 ps=0 w=2u l=2u
X263 AVDD.t1106 AVDD.t1105 AVDD.t1106 AVDD.t70 pfet_03v3 ad=1.3p pd=5.3u as=0 ps=0 w=2u l=2u
X264 AVDD.t1104 AVDD.t1103 AVDD.t1104 AVDD.t205 pfet_03v3 ad=0.84p pd=2.84u as=0 ps=0 w=2u l=2u
X265 AVDD.t1102 AVDD.t1101 AVDD.t1102 AVDD.t233 pfet_03v3 ad=1.3p pd=5.3u as=0 ps=0 w=2u l=2u
X266 AVDD.t1100 AVDD.t1099 AVDD.t1100 AVDD.t8 pfet_03v3 ad=1.3p pd=5.3u as=0 ps=0 w=2u l=2u
X267 AVDD.t1098 AVDD.t1097 AVDD.t1098 AVDD.t205 pfet_03v3 ad=0.84p pd=2.84u as=0 ps=0 w=2u l=2u
X268 AVDD.t1096 AVDD.t1095 AVDD.t1096 AVDD.t16 pfet_03v3 ad=1.3p pd=5.3u as=0 ps=0 w=2u l=2u
X269 a_n13990_8177.t330 VP.t11 a_n13990_n6451.t130 AVDD.t153 pfet_03v3 ad=0.84p pd=2.84u as=1.3p ps=5.3u w=2u l=2u
X270 a_5396_8177.t73 a_5396_n6451.t95 AVDD.t1553 AVDD.t338 pfet_03v3 ad=1.3p pd=5.3u as=0.84p ps=2.84u w=2u l=2u
X271 AVDD.t1094 AVDD.t1093 AVDD.t1094 AVDD.t67 pfet_03v3 ad=1.3p pd=5.3u as=0 ps=0 w=2u l=2u
X272 a_n13990_8177.t331 VP.t12 a_n13990_n6451.t129 AVDD.t378 pfet_03v3 ad=0.84p pd=2.84u as=0.84p ps=2.84u w=2u l=2u
X273 AVDD.t1092 AVDD.t1091 AVDD.t1092 AVDD.t59 pfet_03v3 ad=1.3p pd=5.3u as=0 ps=0 w=2u l=2u
X274 AVDD.t1684 IREF.t88 a_n13990_8177.t239 AVDD.t98 pfet_03v3 ad=0.84p pd=2.84u as=0.84p ps=2.84u w=2u l=2u
X275 a_n11737_n14973.t25 IREF.t89 AVDD.t1685 AVDD.t638 pfet_03v3 ad=0.84p pd=2.84u as=1.3p ps=5.3u w=2u l=2u
X276 AVDD.t1090 AVDD.t1089 AVDD.t1090 AVDD.t114 pfet_03v3 ad=1.3p pd=5.3u as=0 ps=0 w=2u l=2u
X277 AVDD.t1088 AVDD.t1087 AVDD.t1088 AVDD.t205 pfet_03v3 ad=0.84p pd=2.84u as=0 ps=0 w=2u l=2u
X278 AVDD.t1086 AVDD.t1085 AVDD.t1086 AVDD.t98 pfet_03v3 ad=0.84p pd=2.84u as=0 ps=0 w=2u l=2u
X279 VOUT.t69 a_n11317_n20927.t1 a_5396_9163.t115 AVDD.t175 pfet_03v3 ad=0.84p pd=2.84u as=0.84p ps=2.84u w=2u l=2u
X280 AVDD.t1686 IREF.t90 a_n13990_8177.t238 AVDD.t5 pfet_03v3 ad=1.3p pd=5.3u as=0.84p ps=2.84u w=2u l=2u
X281 AVSS.t248 AVSS.t247 AVSS.t248 AVSS.t138 nfet_03v3 ad=1.3725p pd=5.72u as=0 ps=0 w=2.25u l=2u
X282 AVDD.t1084 AVDD.t1083 AVDD.t1084 AVDD.t114 pfet_03v3 ad=1.3p pd=5.3u as=0 ps=0 w=2u l=2u