* Extracted by KLayout with GF180MCU LVS runset on : 08/04/2024 14:46

.SUBCKT StandardLDO GND vref_off ibias AVDD vg Vin Vout
M$1 AVDD AVDD AVDD AVDD pfet_03v3 L=2U W=2U AS=1.3P AD=1.3P PS=5.3U PD=5.3U
M$2 AVDD AVDD AVDD AVDD pfet_03v3 L=2U W=2U AS=1.3P AD=0.84P PS=5.3U PD=2.84U
M$3 AVDD AVDD AVDD AVDD pfet_03v3 L=2U W=2U AS=0.84P AD=0.84P PS=2.84U PD=2.84U
M$4 AVDD AVDD AVDD AVDD pfet_03v3 L=2U W=2U AS=0.84P AD=0.84P PS=2.84U PD=2.84U
M$5 AVDD AVDD AVDD AVDD pfet_03v3 L=2U W=2U AS=0.84P AD=1.3P PS=2.84U PD=5.3U
M$6 AVDD AVDD AVDD AVDD pfet_03v3 L=2U W=2U AS=1.3P AD=0.84P PS=5.3U PD=2.84U
M$7 AVDD AVDD AVDD AVDD pfet_03v3 L=2U W=2U AS=0.84P AD=0.84P PS=2.84U PD=2.84U
M$8 AVDD AVDD AVDD AVDD pfet_03v3 L=2U W=2U AS=0.84P AD=1.3P PS=2.84U PD=5.3U
M$9 AVDD AVDD AVDD AVDD pfet_03v3 L=2U W=2U AS=1.3P AD=0.84P PS=5.3U PD=2.84U
M$10 AVDD AVDD AVDD AVDD pfet_03v3 L=2U W=2U AS=0.84P AD=0.84P PS=2.84U PD=2.84U
M$11 AVDD AVDD AVDD AVDD pfet_03v3 L=2U W=2U AS=0.84P AD=0.84P PS=2.84U PD=2.84U
M$12 AVDD AVDD AVDD AVDD pfet_03v3 L=2U W=2U AS=0.84P AD=1.3P PS=2.84U PD=5.3U
M$13 AVDD AVDD AVDD AVDD pfet_03v3 L=2U W=2U AS=1.3P AD=1.3P PS=5.3U PD=5.3U
M$14 AVDD AVDD AVDD AVDD pfet_03v3 L=2U W=1.2U AS=0.78P AD=0.78P PS=3.7U PD=3.7U
M$15 AVDD AVDD AVDD AVDD pfet_03v3 L=2U W=1.2U AS=0.78P AD=0.504P PS=3.7U
+ PD=2.04U
M$16 AVDD AVDD AVDD AVDD pfet_03v3 L=2U W=1.2U AS=0.504P AD=0.504P PS=2.04U
+ PD=2.04U
M$17 AVDD AVDD AVDD AVDD pfet_03v3 L=2U W=1.2U AS=0.504P AD=0.78P PS=2.04U
+ PD=3.7U
M$18 AVDD AVDD AVDD AVDD pfet_03v3 L=2U W=1.2U AS=0.78P AD=0.78P PS=3.7U PD=3.7U
M$19 AVDD AVDD AVDD AVDD pfet_03v3 L=2U W=1.2U AS=0.78P AD=0.78P PS=3.7U PD=3.7U
M$20 AVDD AVDD AVDD AVDD pfet_03v3 L=2U W=2U AS=1.3P AD=1.3P PS=5.3U PD=5.3U
M$21 AVDD ibias ibias AVDD pfet_03v3 L=2U W=2U AS=1.3P AD=0.84P PS=5.3U PD=2.84U
M$22 ibias ibias AVDD AVDD pfet_03v3 L=2U W=2U AS=0.84P AD=0.84P PS=2.84U
+ PD=2.84U
M$23 AVDD ibias ibias AVDD pfet_03v3 L=2U W=2U AS=0.84P AD=0.84P PS=2.84U
+ PD=2.84U
M$24 ibias ibias AVDD AVDD pfet_03v3 L=2U W=2U AS=0.84P AD=1.3P PS=2.84U PD=5.3U
M$25 AVDD ibias \$83 AVDD pfet_03v3 L=2U W=2U AS=1.3P AD=0.84P PS=5.3U PD=2.84U
M$26 \$83 ibias AVDD AVDD pfet_03v3 L=2U W=2U AS=0.84P AD=0.84P PS=2.84U
+ PD=2.84U
M$27 AVDD ibias \$83 AVDD pfet_03v3 L=2U W=2U AS=0.84P AD=1.3P PS=2.84U PD=5.3U
M$28 AVDD ibias ibias AVDD pfet_03v3 L=2U W=2U AS=1.3P AD=0.84P PS=5.3U PD=2.84U
M$29 ibias ibias AVDD AVDD pfet_03v3 L=2U W=2U AS=0.84P AD=0.84P PS=2.84U
+ PD=2.84U
M$30 AVDD ibias ibias AVDD pfet_03v3 L=2U W=2U AS=0.84P AD=0.84P PS=2.84U
+ PD=2.84U
M$31 ibias ibias AVDD AVDD pfet_03v3 L=2U W=2U AS=0.84P AD=1.3P PS=2.84U PD=5.3U
M$32 AVDD AVDD AVDD AVDD pfet_03v3 L=2U W=2U AS=1.3P AD=1.3P PS=5.3U PD=5.3U
M$33 AVDD AVDD AVDD AVDD pfet_03v3 L=2U W=1.2U AS=0.78P AD=0.78P PS=3.7U PD=3.7U
M$34 \$180 \$32 \$179 AVDD pfet_03v3 L=2U W=1.2U AS=0.78P AD=0.504P PS=3.7U
+ PD=2.04U
M$35 \$181 \$32 \$180 AVDD pfet_03v3 L=2U W=1.2U AS=0.504P AD=0.504P PS=2.04U
+ PD=2.04U
M$36 AVDD \$32 \$181 AVDD pfet_03v3 L=2U W=1.2U AS=0.504P AD=0.78P PS=2.04U
+ PD=3.7U
M$37 AVDD AVDD AVDD AVDD pfet_03v3 L=2U W=1.2U AS=0.78P AD=0.78P PS=3.7U PD=3.7U
M$38 AVDD AVDD AVDD AVDD pfet_03v3 L=2U W=1.2U AS=0.78P AD=0.78P PS=3.7U PD=3.7U
M$39 AVDD AVDD AVDD AVDD pfet_03v3 L=2U W=1.2U AS=0.78P AD=0.78P PS=3.7U PD=3.7U
M$40 AVDD AVDD AVDD AVDD pfet_03v3 L=2U W=1.2U AS=0.78P AD=0.78P PS=3.7U PD=3.7U
M$41 \$215 \$32 \$214 AVDD pfet_03v3 L=2U W=1.2U AS=0.78P AD=0.504P PS=3.7U
+ PD=2.04U
M$42 \$216 \$32 \$215 AVDD pfet_03v3 L=2U W=1.2U AS=0.504P AD=0.504P PS=2.04U
+ PD=2.04U
M$43 \$202 \$32 \$216 AVDD pfet_03v3 L=2U W=1.2U AS=0.504P AD=0.78P PS=2.04U
+ PD=3.7U
M$44 \$200 \$32 \$179 AVDD pfet_03v3 L=2U W=1.2U AS=0.78P AD=0.504P PS=3.7U
+ PD=2.04U
M$45 \$201 \$32 \$200 AVDD pfet_03v3 L=2U W=1.2U AS=0.504P AD=0.504P PS=2.04U
+ PD=2.04U
M$46 \$202 \$32 \$201 AVDD pfet_03v3 L=2U W=1.2U AS=0.504P AD=0.78P PS=2.04U
+ PD=3.7U
M$47 AVDD AVDD AVDD AVDD pfet_03v3 L=2U W=1.2U AS=0.78P AD=0.78P PS=3.7U PD=3.7U
M$48 AVDD AVDD AVDD AVDD pfet_03v3 L=2U W=1.2U AS=0.78P AD=0.78P PS=3.7U PD=3.7U
M$49 AVDD AVDD AVDD AVDD pfet_03v3 L=2U W=1.2U AS=0.78P AD=0.78P PS=3.7U PD=3.7U
M$50 AVDD AVDD AVDD AVDD pfet_03v3 L=2U W=1.2U AS=0.78P AD=0.78P PS=3.7U PD=3.7U
M$51 AVDD AVDD AVDD AVDD pfet_03v3 L=2U W=2U AS=1.3P AD=1.3P PS=5.3U PD=5.3U
M$52 AVDD ibias \$83 AVDD pfet_03v3 L=2U W=2U AS=1.3P AD=0.84P PS=5.3U PD=2.84U
M$53 \$83 ibias AVDD AVDD pfet_03v3 L=2U W=2U AS=0.84P AD=0.84P PS=2.84U
+ PD=2.84U
M$54 AVDD ibias \$83 AVDD pfet_03v3 L=2U W=2U AS=0.84P AD=0.84P PS=2.84U
+ PD=2.84U
M$55 \$83 ibias AVDD AVDD pfet_03v3 L=2U W=2U AS=0.84P AD=1.3P PS=2.84U PD=5.3U
M$56 \$43 ibias AVDD AVDD pfet_03v3 L=2U W=2U AS=1.3P AD=0.84P PS=5.3U PD=2.84U
M$57 AVDD ibias \$43 AVDD pfet_03v3 L=2U W=2U AS=0.84P AD=0.84P PS=2.84U
+ PD=2.84U
M$58 \$43 ibias AVDD AVDD pfet_03v3 L=2U W=2U AS=0.84P AD=1.3P PS=2.84U PD=5.3U
M$59 AVDD ibias \$83 AVDD pfet_03v3 L=2U W=2U AS=1.3P AD=0.84P PS=5.3U PD=2.84U
M$60 \$83 ibias AVDD AVDD pfet_03v3 L=2U W=2U AS=0.84P AD=0.84P PS=2.84U
+ PD=2.84U
M$61 AVDD ibias \$83 AVDD pfet_03v3 L=2U W=2U AS=0.84P AD=0.84P PS=2.84U
+ PD=2.84U
M$62 \$83 ibias AVDD AVDD pfet_03v3 L=2U W=2U AS=0.84P AD=1.3P PS=2.84U PD=5.3U
M$63 AVDD AVDD AVDD AVDD pfet_03v3 L=2U W=2U AS=1.3P AD=1.3P PS=5.3U PD=5.3U
M$64 AVDD AVDD AVDD AVDD pfet_03v3 L=2U W=2U AS=1.3P AD=1.3P PS=5.3U PD=5.3U
M$65 AVDD ibias \$43 AVDD pfet_03v3 L=2U W=2U AS=1.3P AD=0.84P PS=5.3U PD=2.84U
M$66 \$43 ibias AVDD AVDD pfet_03v3 L=2U W=2U AS=0.84P AD=0.84P PS=2.84U
+ PD=2.84U
M$67 AVDD ibias \$43 AVDD pfet_03v3 L=2U W=2U AS=0.84P AD=0.84P PS=2.84U
+ PD=2.84U
M$68 \$43 ibias AVDD AVDD pfet_03v3 L=2U W=2U AS=0.84P AD=1.3P PS=2.84U PD=5.3U
M$69 AVDD ibias ibias AVDD pfet_03v3 L=2U W=2U AS=1.3P AD=0.84P PS=5.3U PD=2.84U
M$70 ibias ibias AVDD AVDD pfet_03v3 L=2U W=2U AS=0.84P AD=0.84P PS=2.84U
+ PD=2.84U
M$71 AVDD ibias ibias AVDD pfet_03v3 L=2U W=2U AS=0.84P AD=1.3P PS=2.84U PD=5.3U
M$72 AVDD ibias \$43 AVDD pfet_03v3 L=2U W=2U AS=1.3P AD=0.84P PS=5.3U PD=2.84U
M$73 \$43 ibias AVDD AVDD pfet_03v3 L=2U W=2U AS=0.84P AD=0.84P PS=2.84U
+ PD=2.84U
M$74 AVDD ibias \$43 AVDD pfet_03v3 L=2U W=2U AS=0.84P AD=0.84P PS=2.84U
+ PD=2.84U
M$75 \$43 ibias AVDD AVDD pfet_03v3 L=2U W=2U AS=0.84P AD=1.3P PS=2.84U PD=5.3U
M$76 AVDD AVDD AVDD AVDD pfet_03v3 L=2U W=2U AS=1.3P AD=1.3P PS=5.3U PD=5.3U
M$77 AVDD AVDD AVDD AVDD pfet_03v3 L=2U W=1.2U AS=0.78P AD=0.78P PS=3.7U PD=3.7U
M$78 \$228 \$32 \$214 AVDD pfet_03v3 L=2U W=1.2U AS=0.78P AD=0.504P PS=3.7U
+ PD=2.04U
M$79 \$229 \$32 \$228 AVDD pfet_03v3 L=2U W=1.2U AS=0.504P AD=0.504P PS=2.04U
+ PD=2.04U
M$80 \$230 \$32 \$229 AVDD pfet_03v3 L=2U W=1.2U AS=0.504P AD=0.78P PS=2.04U
+ PD=3.7U
M$81 \$32 \$32 \$230 AVDD pfet_03v3 L=2U W=1.2U AS=0.78P AD=0.78P PS=3.7U
+ PD=3.7U
M$82 AVDD AVDD AVDD AVDD pfet_03v3 L=2U W=1.2U AS=0.78P AD=0.78P PS=3.7U PD=3.7U
M$83 AVDD AVDD AVDD AVDD pfet_03v3 L=2U W=2U AS=1.3P AD=1.3P PS=5.3U PD=5.3U
M$84 AVDD ibias \$43 AVDD pfet_03v3 L=2U W=2U AS=1.3P AD=0.84P PS=5.3U PD=2.84U
M$85 \$43 ibias AVDD AVDD pfet_03v3 L=2U W=2U AS=0.84P AD=0.84P PS=2.84U
+ PD=2.84U
M$86 AVDD ibias \$43 AVDD pfet_03v3 L=2U W=2U AS=0.84P AD=0.84P PS=2.84U
+ PD=2.84U
M$87 \$43 ibias AVDD AVDD pfet_03v3 L=2U W=2U AS=0.84P AD=1.3P PS=2.84U PD=5.3U
M$88 AVDD ibias ibias AVDD pfet_03v3 L=2U W=2U AS=1.3P AD=0.84P PS=5.3U PD=2.84U
M$89 ibias ibias AVDD AVDD pfet_03v3 L=2U W=2U AS=0.84P AD=0.84P PS=2.84U
+ PD=2.84U
M$90 AVDD ibias ibias AVDD pfet_03v3 L=2U W=2U AS=0.84P AD=1.3P PS=2.84U PD=5.3U
M$91 AVDD ibias \$43 AVDD pfet_03v3 L=2U W=2U AS=1.3P AD=0.84P PS=5.3U PD=2.84U
M$92 \$43 ibias AVDD AVDD pfet_03v3 L=2U W=2U AS=0.84P AD=0.84P PS=2.84U
+ PD=2.84U
M$93 AVDD ibias \$43 AVDD pfet_03v3 L=2U W=2U AS=0.84P AD=0.84P PS=2.84U
+ PD=2.84U
M$94 \$43 ibias AVDD AVDD pfet_03v3 L=2U W=2U AS=0.84P AD=1.3P PS=2.84U PD=5.3U
M$95 AVDD AVDD AVDD AVDD pfet_03v3 L=2U W=2U AS=1.3P AD=1.3P PS=5.3U PD=5.3U
M$96 AVDD AVDD AVDD AVDD pfet_03v3 L=2U W=1.2U AS=0.78P AD=0.78P PS=3.7U PD=3.7U
M$97 AVDD AVDD AVDD AVDD pfet_03v3 L=2U W=1.2U AS=0.78P AD=0.504P PS=3.7U
+ PD=2.04U
M$98 AVDD AVDD AVDD AVDD pfet_03v3 L=2U W=1.2U AS=0.504P AD=0.504P PS=2.04U
+ PD=2.04U
M$99 AVDD AVDD AVDD AVDD pfet_03v3 L=2U W=1.2U AS=0.504P AD=0.78P PS=2.04U
+ PD=3.7U
M$100 AVDD AVDD AVDD AVDD pfet_03v3 L=2U W=1.2U AS=0.78P AD=0.78P PS=3.7U
+ PD=3.7U
M$101 AVDD AVDD AVDD AVDD pfet_03v3 L=2U W=1.2U AS=0.78P AD=0.78P PS=3.7U
+ PD=3.7U
M$102 AVDD AVDD AVDD AVDD pfet_03v3 L=2U W=2U AS=1.3P AD=1.3P PS=5.3U PD=5.3U
M$103 AVDD ibias \$83 AVDD pfet_03v3 L=2U W=2U AS=1.3P AD=0.84P PS=5.3U PD=2.84U
M$104 \$83 ibias AVDD AVDD pfet_03v3 L=2U W=2U AS=0.84P AD=0.84P PS=2.84U
+ PD=2.84U
M$105 AVDD ibias \$83 AVDD pfet_03v3 L=2U W=2U AS=0.84P AD=0.84P PS=2.84U
+ PD=2.84U
M$106 \$83 ibias AVDD AVDD pfet_03v3 L=2U W=2U AS=0.84P AD=1.3P PS=2.84U PD=5.3U
M$107 AVDD ibias \$43 AVDD pfet_03v3 L=2U W=2U AS=1.3P AD=0.84P PS=5.3U PD=2.84U
M$108 \$43 ibias AVDD AVDD pfet_03v3 L=2U W=2U AS=0.84P AD=0.84P PS=2.84U
+ PD=2.84U
M$109 AVDD ibias \$43 AVDD pfet_03v3 L=2U W=2U AS=0.84P AD=1.3P PS=2.84U PD=5.3U
M$110 AVDD ibias \$83 AVDD pfet_03v3 L=2U W=2U AS=1.3P AD=0.84P PS=5.3U PD=2.84U
M$111 \$83 ibias AVDD AVDD pfet_03v3 L=2U W=2U AS=0.84P AD=0.84P PS=2.84U
+ PD=2.84U
M$112 AVDD ibias \$83 AVDD pfet_03v3 L=2U W=2U AS=0.84P AD=0.84P PS=2.84U
+ PD=2.84U
M$113 \$83 ibias AVDD AVDD pfet_03v3 L=2U W=2U AS=0.84P AD=1.3P PS=2.84U PD=5.3U
M$114 AVDD AVDD AVDD AVDD pfet_03v3 L=2U W=2U AS=1.3P AD=1.3P PS=5.3U PD=5.3U
M$115 AVDD AVDD AVDD AVDD pfet_03v3 L=2U W=2U AS=1.3P AD=1.3P PS=5.3U PD=5.3U
M$116 AVDD ibias ibias AVDD pfet_03v3 L=2U W=2U AS=1.3P AD=0.84P PS=5.3U
+ PD=2.84U
M$117 ibias ibias AVDD AVDD pfet_03v3 L=2U W=2U AS=0.84P AD=0.84P PS=2.84U
+ PD=2.84U
M$118 AVDD ibias ibias AVDD pfet_03v3 L=2U W=2U AS=0.84P AD=0.84P PS=2.84U
+ PD=2.84U
M$119 ibias ibias AVDD AVDD pfet_03v3 L=2U W=2U AS=0.84P AD=1.3P PS=2.84U
+ PD=5.3U
M$120 \$83 ibias AVDD AVDD pfet_03v3 L=2U W=2U AS=1.3P AD=0.84P PS=5.3U PD=2.84U
M$121 AVDD ibias \$83 AVDD pfet_03v3 L=2U W=2U AS=0.84P AD=0.84P PS=2.84U
+ PD=2.84U
M$122 \$83 ibias AVDD AVDD pfet_03v3 L=2U W=2U AS=0.84P AD=1.3P PS=2.84U PD=5.3U
M$123 AVDD ibias ibias AVDD pfet_03v3 L=2U W=2U AS=1.3P AD=0.84P PS=5.3U
+ PD=2.84U
M$124 ibias ibias AVDD AVDD pfet_03v3 L=2U W=2U AS=0.84P AD=0.84P PS=2.84U
+ PD=2.84U
M$125 AVDD ibias ibias AVDD pfet_03v3 L=2U W=2U AS=0.84P AD=0.84P PS=2.84U
+ PD=2.84U
M$126 ibias ibias AVDD AVDD pfet_03v3 L=2U W=2U AS=0.84P AD=1.3P PS=2.84U
+ PD=5.3U
M$127 AVDD AVDD AVDD AVDD pfet_03v3 L=2U W=2U AS=1.3P AD=1.3P PS=5.3U PD=5.3U
M$128 AVDD AVDD AVDD AVDD pfet_03v3 L=2U W=2U AS=1.3P AD=1.3P PS=5.3U PD=5.3U
M$129 AVDD AVDD AVDD AVDD pfet_03v3 L=2U W=2U AS=1.3P AD=0.84P PS=5.3U PD=2.84U
M$130 AVDD AVDD AVDD AVDD pfet_03v3 L=2U W=2U AS=0.84P AD=0.84P PS=2.84U
+ PD=2.84U
M$131 AVDD AVDD AVDD AVDD pfet_03v3 L=2U W=2U AS=0.84P AD=0.84P PS=2.84U
+ PD=2.84U
M$132 AVDD AVDD AVDD AVDD pfet_03v3 L=2U W=2U AS=0.84P AD=1.3P PS=2.84U PD=5.3U
M$133 AVDD AVDD AVDD AVDD pfet_03v3 L=2U W=2U AS=1.3P AD=0.84P PS=5.3U PD=2.84U
M$134 AVDD AVDD AVDD AVDD pfet_03v3 L=2U W=2U AS=0.84P AD=0.84P PS=2.84U
+ PD=2.84U
M$135 AVDD AVDD AVDD AVDD pfet_03v3 L=2U W=2U AS=0.84P AD=1.3P PS=2.84U PD=5.3U
M$136 AVDD AVDD AVDD AVDD pfet_03v3 L=2U W=2U AS=1.3P AD=0.84P PS=5.3U PD=2.84U
M$137 AVDD AVDD AVDD AVDD pfet_03v3 L=2U W=2U AS=0.84P AD=0.84P PS=2.84U
+ PD=2.84U
M$138 AVDD AVDD AVDD AVDD pfet_03v3 L=2U W=2U AS=0.84P AD=0.84P PS=2.84U
+ PD=2.84U
M$139 AVDD AVDD AVDD AVDD pfet_03v3 L=2U W=2U AS=0.84P AD=1.3P PS=2.84U PD=5.3U
M$140 AVDD AVDD AVDD AVDD pfet_03v3 L=2U W=2U AS=1.3P AD=1.3P PS=5.3U PD=5.3U
M$141 AVDD AVDD AVDD AVDD pfet_03v3 L=2U W=2U AS=1.3P AD=1.3P PS=5.3U PD=5.3U
M$142 AVDD AVDD AVDD AVDD pfet_03v3 L=2U W=2U AS=1.3P AD=0.84P PS=5.3U PD=2.84U
M$143 AVDD AVDD AVDD AVDD pfet_03v3 L=2U W=2U AS=0.84P AD=0.84P PS=2.84U
+ PD=2.84U
M$144 AVDD AVDD AVDD AVDD pfet_03v3 L=2U W=2U AS=0.84P AD=0.84P PS=2.84U
+ PD=2.84U
M$145 AVDD AVDD AVDD AVDD pfet_03v3 L=2U W=2U AS=0.84P AD=1.3P PS=2.84U PD=5.3U
M$146 AVDD AVDD AVDD AVDD pfet_03v3 L=2U W=2U AS=1.3P AD=0.84P PS=5.3U PD=2.84U
M$147 AVDD AVDD AVDD AVDD pfet_03v3 L=2U W=2U AS=0.84P AD=0.84P PS=2.84U
+ PD=2.84U
M$148 AVDD AVDD AVDD AVDD pfet_03v3 L=2U W=2U AS=0.84P AD=1.3P PS=2.84U PD=5.3U
M$149 AVDD AVDD AVDD AVDD pfet_03v3 L=2U W=2U AS=1.3P AD=0.84P PS=5.3U PD=2.84U
M$150 AVDD AVDD AVDD AVDD pfet_03v3 L=2U W=2U AS=0.84P AD=0.84P PS=2.84U
+ PD=2.84U
M$151 AVDD AVDD AVDD AVDD pfet_03v3 L=2U W=2U AS=0.84P AD=0.84P PS=2.84U
+ PD=2.84U
M$152 AVDD AVDD AVDD AVDD pfet_03v3 L=2U W=2U AS=0.84P AD=1.3P PS=2.84U PD=5.3U
M$153 AVDD AVDD AVDD AVDD pfet_03v3 L=2U W=2U AS=1.3P AD=1.3P PS=5.3U PD=5.3U
M$154 AVDD AVDD AVDD AVDD pfet_03v3 L=2U W=2U AS=1.3P AD=1.3P PS=5.3U PD=5.3U
M$155 AVDD AVDD AVDD AVDD pfet_03v3 L=2U W=2U AS=1.3P AD=0.84P PS=5.3U PD=2.84U
M$156 AVDD AVDD AVDD AVDD pfet_03v3 L=2U W=2U AS=0.84P AD=0.84P PS=2.84U
+ PD=2.84U
M$157 AVDD AVDD AVDD AVDD pfet_03v3 L=2U W=2U AS=0.84P AD=0.84P PS=2.84U
+ PD=2.84U
M$158 AVDD AVDD AVDD AVDD pfet_03v3 L=2U W=2U AS=0.84P AD=1.3P PS=2.84U PD=5.3U
M$159 AVDD AVDD AVDD AVDD pfet_03v3 L=2U W=2U AS=1.3P AD=0.84P PS=5.3U PD=2.84U
M$160 AVDD AVDD AVDD AVDD pfet_03v3 L=2U W=2U AS=0.84P AD=0.84P PS=2.84U
+ PD=2.84U
M$161 AVDD AVDD AVDD AVDD pfet_03v3 L=2U W=2U AS=0.84P AD=1.3P PS=2.84U PD=5.3U
M$162 AVDD AVDD AVDD AVDD pfet_03v3 L=2U W=2U AS=1.3P AD=0.84P PS=5.3U PD=2.84U
M$163 AVDD AVDD AVDD AVDD pfet_03v3 L=2U W=2U AS=0.84P AD=0.84P PS=2.84U
+ PD=2.84U
M$164 AVDD AVDD AVDD AVDD pfet_03v3 L=2U W=2U AS=0.84P AD=0.84P PS=2.84U
+ PD=2.84U
M$165 AVDD AVDD AVDD AVDD pfet_03v3 L=2U W=2U AS=0.84P AD=1.3P PS=2.84U PD=5.3U
M$166 AVDD AVDD AVDD AVDD pfet_03v3 L=2U W=2U AS=1.3P AD=1.3P PS=5.3U PD=5.3U
M$167 AVDD AVDD AVDD AVDD pfet_03v3 L=2U W=2U AS=1.3P AD=1.3P PS=5.3U PD=5.3U
M$168 AVDD AVDD AVDD AVDD pfet_03v3 L=2U W=2U AS=1.3P AD=0.84P PS=5.3U PD=2.84U
M$169 AVDD AVDD AVDD AVDD pfet_03v3 L=2U W=2U AS=0.84P AD=0.84P PS=2.84U
+ PD=2.84U
M$170 AVDD AVDD AVDD AVDD pfet_03v3 L=2U W=2U AS=0.84P AD=0.84P PS=2.84U
+ PD=2.84U
M$171 AVDD AVDD AVDD AVDD pfet_03v3 L=2U W=2U AS=0.84P AD=1.3P PS=2.84U PD=5.3U
M$172 AVDD AVDD AVDD AVDD pfet_03v3 L=2U W=2U AS=1.3P AD=0.84P PS=5.3U PD=2.84U
M$173 AVDD AVDD AVDD AVDD pfet_03v3 L=2U W=2U AS=0.84P AD=0.84P PS=2.84U
+ PD=2.84U
M$174 AVDD AVDD AVDD AVDD pfet_03v3 L=2U W=2U AS=0.84P AD=1.3P PS=2.84U PD=5.3U
M$175 AVDD AVDD AVDD AVDD pfet_03v3 L=2U W=2U AS=1.3P AD=0.84P PS=5.3U PD=2.84U
M$176 AVDD AVDD AVDD AVDD pfet_03v3 L=2U W=2U AS=0.84P AD=0.84P PS=2.84U
+ PD=2.84U
M$177 AVDD AVDD AVDD AVDD pfet_03v3 L=2U W=2U AS=0.84P AD=0.84P PS=2.84U
+ PD=2.84U
M$178 AVDD AVDD AVDD AVDD pfet_03v3 L=2U W=2U AS=0.84P AD=1.3P PS=2.84U PD=5.3U
M$179 AVDD AVDD AVDD AVDD pfet_03v3 L=2U W=2U AS=1.3P AD=1.3P PS=5.3U PD=5.3U
M$180 AVDD AVDD AVDD AVDD pfet_03v3 L=2U W=2U AS=1.3P AD=1.3P PS=5.3U PD=5.3U
M$181 AVDD AVDD AVDD AVDD pfet_03v3 L=2U W=2U AS=1.3P AD=0.84P PS=5.3U PD=2.84U
M$182 AVDD AVDD AVDD AVDD pfet_03v3 L=2U W=2U AS=0.84P AD=0.84P PS=2.84U
+ PD=2.84U
M$183 AVDD AVDD AVDD AVDD pfet_03v3 L=2U W=2U AS=0.84P AD=0.84P PS=2.84U
+ PD=2.84U
M$184 AVDD AVDD AVDD AVDD pfet_03v3 L=2U W=2U AS=0.84P AD=1.3P PS=2.84U PD=5.3U
M$185 AVDD AVDD AVDD AVDD pfet_03v3 L=2U W=2U AS=1.3P AD=0.84P PS=5.3U PD=2.84U
M$186 AVDD AVDD AVDD AVDD pfet_03v3 L=2U W=2U AS=0.84P AD=0.84P PS=2.84U
+ PD=2.84U
M$187 AVDD AVDD AVDD AVDD pfet_03v3 L=2U W=2U AS=0.84P AD=1.3P PS=2.84U PD=5.3U
M$188 AVDD AVDD AVDD AVDD pfet_03v3 L=2U W=2U AS=1.3P AD=0.84P PS=5.3U PD=2.84U
M$189 AVDD AVDD AVDD AVDD pfet_03v3 L=2U W=2U AS=0.84P AD=0.84P PS=2.84U
+ PD=2.84U
M$190 AVDD AVDD AVDD AVDD pfet_03v3 L=2U W=2U AS=0.84P AD=0.84P PS=2.84U
+ PD=2.84U
M$191 AVDD AVDD AVDD AVDD pfet_03v3 L=2U W=2U AS=0.84P AD=1.3P PS=2.84U PD=5.3U
M$192 AVDD AVDD AVDD AVDD pfet_03v3 L=2U W=2U AS=1.3P AD=1.3P PS=5.3U PD=5.3U
M$193 AVDD AVDD AVDD AVDD pfet_03v3 L=2U W=2U AS=1.3P AD=1.3P PS=5.3U PD=5.3U
M$194 \$369 vref_off \$26 AVDD pfet_03v3 L=2U W=2U AS=1.3P AD=0.84P PS=5.3U
+ PD=2.84U
M$195 \$26 vref_off \$369 AVDD pfet_03v3 L=2U W=2U AS=0.84P AD=0.84P PS=2.84U
+ PD=2.84U
M$196 \$369 vref_off \$26 AVDD pfet_03v3 L=2U W=2U AS=0.84P AD=0.84P PS=2.84U
+ PD=2.84U
M$197 \$26 vref_off \$369 AVDD pfet_03v3 L=2U W=2U AS=0.84P AD=1.3P PS=2.84U
+ PD=5.3U
M$198 \$369 Vin \$17 AVDD pfet_03v3 L=2U W=2U AS=1.3P AD=0.84P PS=5.3U PD=2.84U
M$199 \$17 Vin \$369 AVDD pfet_03v3 L=2U W=2U AS=0.84P AD=0.84P PS=2.84U
+ PD=2.84U
M$200 \$369 Vin \$17 AVDD pfet_03v3 L=2U W=2U AS=0.84P AD=1.3P PS=2.84U PD=5.3U
M$201 \$369 vref_off \$26 AVDD pfet_03v3 L=2U W=2U AS=1.3P AD=0.84P PS=5.3U
+ PD=2.84U
M$202 \$26 vref_off \$369 AVDD pfet_03v3 L=2U W=2U AS=0.84P AD=0.84P PS=2.84U
+ PD=2.84U
M$203 \$369 vref_off \$26 AVDD pfet_03v3 L=2U W=2U AS=0.84P AD=0.84P PS=2.84U
+ PD=2.84U
M$204 \$26 vref_off \$369 AVDD pfet_03v3 L=2U W=2U AS=0.84P AD=1.3P PS=2.84U
+ PD=5.3U
M$205 AVDD AVDD AVDD AVDD pfet_03v3 L=2U W=2U AS=1.3P AD=1.3P PS=5.3U PD=5.3U
M$206 AVDD AVDD AVDD AVDD pfet_03v3 L=2U W=2U AS=1.3P AD=1.3P PS=5.3U PD=5.3U
M$207 \$369 vref_off \$26 AVDD pfet_03v3 L=2U W=2U AS=1.3P AD=0.84P PS=5.3U
+ PD=2.84U
M$208 \$26 vref_off \$369 AVDD pfet_03v3 L=2U W=2U AS=0.84P AD=0.84P PS=2.84U
+ PD=2.84U
M$209 \$369 vref_off \$26 AVDD pfet_03v3 L=2U W=2U AS=0.84P AD=0.84P PS=2.84U
+ PD=2.84U
M$210 \$26 vref_off \$369 AVDD pfet_03v3 L=2U W=2U AS=0.84P AD=1.3P PS=2.84U
+ PD=5.3U
M$211 \$369 Vin \$17 AVDD pfet_03v3 L=2U W=2U AS=1.3P AD=0.84P PS=5.3U PD=2.84U
M$212 \$17 Vin \$369 AVDD pfet_03v3 L=2U W=2U AS=0.84P AD=0.84P PS=2.84U
+ PD=2.84U
M$213 \$369 Vin \$17 AVDD pfet_03v3 L=2U W=2U AS=0.84P AD=1.3P PS=2.84U PD=5.3U
M$214 \$369 vref_off \$26 AVDD pfet_03v3 L=2U W=2U AS=1.3P AD=0.84P PS=5.3U
+ PD=2.84U
M$215 \$26 vref_off \$369 AVDD pfet_03v3 L=2U W=2U AS=0.84P AD=0.84P PS=2.84U
+ PD=2.84U
M$216 \$369 vref_off \$26 AVDD pfet_03v3 L=2U W=2U AS=0.84P AD=0.84P PS=2.84U
+ PD=2.84U
M$217 \$26 vref_off \$369 AVDD pfet_03v3 L=2U W=2U AS=0.84P AD=1.3P PS=2.84U
+ PD=5.3U
M$218 AVDD AVDD AVDD AVDD pfet_03v3 L=2U W=2U AS=1.3P AD=1.3P PS=5.3U PD=5.3U
M$219 AVDD AVDD AVDD AVDD pfet_03v3 L=2U W=2U AS=1.3P AD=1.3P PS=5.3U PD=5.3U
M$220 \$370 \$32 \$248 AVDD pfet_03v3 L=2U W=2U AS=1.3P AD=0.84P PS=5.3U
+ PD=2.84U
M$221 \$248 \$32 \$370 AVDD pfet_03v3 L=2U W=2U AS=0.84P AD=0.84P PS=2.84U
+ PD=2.84U
M$222 \$370 \$32 \$248 AVDD pfet_03v3 L=2U W=2U AS=0.84P AD=0.84P PS=2.84U
+ PD=2.84U
M$223 \$248 \$32 \$370 AVDD pfet_03v3 L=2U W=2U AS=0.84P AD=1.3P PS=2.84U
+ PD=5.3U
M$224 \$364 \$32 vg AVDD pfet_03v3 L=2U W=2U AS=1.3P AD=0.84P PS=5.3U PD=2.84U
M$225 vg \$32 \$364 AVDD pfet_03v3 L=2U W=2U AS=0.84P AD=0.84P PS=2.84U PD=2.84U
M$226 \$364 \$32 vg AVDD pfet_03v3 L=2U W=2U AS=0.84P AD=1.3P PS=2.84U PD=5.3U
M$227 \$370 \$32 \$248 AVDD pfet_03v3 L=2U W=2U AS=1.3P AD=0.84P PS=5.3U
+ PD=2.84U
M$228 \$248 \$32 \$370 AVDD pfet_03v3 L=2U W=2U AS=0.84P AD=0.84P PS=2.84U
+ PD=2.84U
M$229 \$370 \$32 \$248 AVDD pfet_03v3 L=2U W=2U AS=0.84P AD=0.84P PS=2.84U
+ PD=2.84U
M$230 \$248 \$32 \$370 AVDD pfet_03v3 L=2U W=2U AS=0.84P AD=1.3P PS=2.84U
+ PD=5.3U
M$231 AVDD AVDD AVDD AVDD pfet_03v3 L=2U W=2U AS=1.3P AD=1.3P PS=5.3U PD=5.3U
M$232 AVDD AVDD AVDD AVDD pfet_03v3 L=2U W=2U AS=1.3P AD=1.3P PS=5.3U PD=5.3U
M$233 \$370 \$32 \$248 AVDD pfet_03v3 L=2U W=2U AS=1.3P AD=0.84P PS=5.3U
+ PD=2.84U
M$234 \$248 \$32 \$370 AVDD pfet_03v3 L=2U W=2U AS=0.84P AD=0.84P PS=2.84U
+ PD=2.84U
M$235 \$370 \$32 \$248 AVDD pfet_03v3 L=2U W=2U AS=0.84P AD=0.84P PS=2.84U
+ PD=2.84U
M$236 \$248 \$32 \$370 AVDD pfet_03v3 L=2U W=2U AS=0.84P AD=1.3P PS=2.84U
+ PD=5.3U
M$237 \$364 \$32 vg AVDD pfet_03v3 L=2U W=2U AS=1.3P AD=0.84P PS=5.3U PD=2.84U
M$238 vg \$32 \$364 AVDD pfet_03v3 L=2U W=2U AS=0.84P AD=0.84P PS=2.84U PD=2.84U
M$239 \$364 \$32 vg AVDD pfet_03v3 L=2U W=2U AS=0.84P AD=1.3P PS=2.84U PD=5.3U
M$240 \$370 \$32 \$248 AVDD pfet_03v3 L=2U W=2U AS=1.3P AD=0.84P PS=5.3U
+ PD=2.84U
M$241 \$248 \$32 \$370 AVDD pfet_03v3 L=2U W=2U AS=0.84P AD=0.84P PS=2.84U
+ PD=2.84U
M$242 \$370 \$32 \$248 AVDD pfet_03v3 L=2U W=2U AS=0.84P AD=0.84P PS=2.84U
+ PD=2.84U
M$243 \$248 \$32 \$370 AVDD pfet_03v3 L=2U W=2U AS=0.84P AD=1.3P PS=2.84U
+ PD=5.3U
M$244 AVDD AVDD AVDD AVDD pfet_03v3 L=2U W=2U AS=1.3P AD=1.3P PS=5.3U PD=5.3U
M$245 AVDD AVDD AVDD AVDD pfet_03v3 L=2U W=2U AS=1.3P AD=1.3P PS=5.3U PD=5.3U
M$246 \$369 Vin \$17 AVDD pfet_03v3 L=2U W=2U AS=1.3P AD=0.84P PS=5.3U PD=2.84U
M$247 \$17 Vin \$369 AVDD pfet_03v3 L=2U W=2U AS=0.84P AD=0.84P PS=2.84U
+ PD=2.84U
M$248 \$369 Vin \$17 AVDD pfet_03v3 L=2U W=2U AS=0.84P AD=0.84P PS=2.84U
+ PD=2.84U
M$249 \$17 Vin \$369 AVDD pfet_03v3 L=2U W=2U AS=0.84P AD=1.3P PS=2.84U PD=5.3U
M$250 \$26 vref_off \$369 AVDD pfet_03v3 L=2U W=2U AS=1.3P AD=0.84P PS=5.3U
+ PD=2.84U
M$251 \$369 vref_off \$26 AVDD pfet_03v3 L=2U W=2U AS=0.84P AD=0.84P PS=2.84U
+ PD=2.84U
M$252 \$26 vref_off \$369 AVDD pfet_03v3 L=2U W=2U AS=0.84P AD=1.3P PS=2.84U
+ PD=5.3U
M$253 \$369 Vin \$17 AVDD pfet_03v3 L=2U W=2U AS=1.3P AD=0.84P PS=5.3U PD=2.84U
M$254 \$17 Vin \$369 AVDD pfet_03v3 L=2U W=2U AS=0.84P AD=0.84P PS=2.84U
+ PD=2.84U
M$255 \$369 Vin \$17 AVDD pfet_03v3 L=2U W=2U AS=0.84P AD=0.84P PS=2.84U
+ PD=2.84U
M$256 \$17 Vin \$369 AVDD pfet_03v3 L=2U W=2U AS=0.84P AD=1.3P PS=2.84U PD=5.3U
M$257 AVDD AVDD AVDD AVDD pfet_03v3 L=2U W=2U AS=1.3P AD=1.3P PS=5.3U PD=5.3U
M$258 AVDD AVDD AVDD AVDD pfet_03v3 L=2U W=2U AS=1.3P AD=1.3P PS=5.3U PD=5.3U
M$259 \$369 Vin \$17 AVDD pfet_03v3 L=2U W=2U AS=1.3P AD=0.84P PS=5.3U PD=2.84U
M$260 \$17 Vin \$369 AVDD pfet_03v3 L=2U W=2U AS=0.84P AD=0.84P PS=2.84U
+ PD=2.84U
M$261 \$369 Vin \$17 AVDD pfet_03v3 L=2U W=2U AS=0.84P AD=0.84P PS=2.84U
+ PD=2.84U
M$262 \$17 Vin \$369 AVDD pfet_03v3 L=2U W=2U AS=0.84P AD=1.3P PS=2.84U PD=5.3U
M$263 \$26 vref_off \$369 AVDD pfet_03v3 L=2U W=2U AS=1.3P AD=0.84P PS=5.3U
+ PD=2.84U
M$264 \$369 vref_off \$26 AVDD pfet_03v3 L=2U W=2U AS=0.84P AD=0.84P PS=2.84U
+ PD=2.84U
M$265 \$26 vref_off \$369 AVDD pfet_03v3 L=2U W=2U AS=0.84P AD=1.3P PS=2.84U
+ PD=5.3U
M$266 \$369 Vin \$17 AVDD pfet_03v3 L=2U W=2U AS=1.3P AD=0.84P PS=5.3U PD=2.84U
M$267 \$17 Vin \$369 AVDD pfet_03v3 L=2U W=2U AS=0.84P AD=0.84P PS=2.84U
+ PD=2.84U
M$268 \$369 Vin \$17 AVDD pfet_03v3 L=2U W=2U AS=0.84P AD=0.84P PS=2.84U
+ PD=2.84U
M$269 \$17 Vin \$369 AVDD pfet_03v3 L=2U W=2U AS=0.84P AD=1.3P PS=2.84U PD=5.3U
M$270 AVDD AVDD AVDD AVDD pfet_03v3 L=2U W=2U AS=1.3P AD=1.3P PS=5.3U PD=5.3U
M$271 AVDD AVDD AVDD AVDD pfet_03v3 L=2U W=2U AS=1.3P AD=1.3P PS=5.3U PD=5.3U
M$272 \$364 \$32 vg AVDD pfet_03v3 L=2U W=2U AS=1.3P AD=0.84P PS=5.3U PD=2.84U
M$273 vg \$32 \$364 AVDD pfet_03v3 L=2U W=2U AS=0.84P AD=0.84P PS=2.84U PD=2.84U
M$274 \$364 \$32 vg AVDD pfet_03v3 L=2U W=2U AS=0.84P AD=0.84P PS=2.84U PD=2.84U
M$275 vg \$32 \$364 AVDD pfet_03v3 L=2U W=2U AS=0.84P AD=1.3P PS=2.84U PD=5.3U
M$276 \$248 \$32 \$370 AVDD pfet_03v3 L=2U W=2U AS=1.3P AD=0.84P PS=5.3U
+ PD=2.84U
M$277 \$370 \$32 \$248 AVDD pfet_03v3 L=2U W=2U AS=0.84P AD=0.84P PS=2.84U
+ PD=2.84U
M$278 \$248 \$32 \$370 AVDD pfet_03v3 L=2U W=2U AS=0.84P AD=1.3P PS=2.84U
+ PD=5.3U
M$279 \$364 \$32 vg AVDD pfet_03v3 L=2U W=2U AS=1.3P AD=0.84P PS=5.3U PD=2.84U
M$280 vg \$32 \$364 AVDD pfet_03v3 L=2U W=2U AS=0.84P AD=0.84P PS=2.84U PD=2.84U
M$281 \$364 \$32 vg AVDD pfet_03v3 L=2U W=2U AS=0.84P AD=0.84P PS=2.84U PD=2.84U
M$282 vg \$32 \$364 AVDD pfet_03v3 L=2U W=2U AS=0.84P AD=1.3P PS=2.84U PD=5.3U
M$283 AVDD AVDD AVDD AVDD pfet_03v3 L=2U W=2U AS=1.3P AD=1.3P PS=5.3U PD=5.3U
M$284 AVDD AVDD AVDD AVDD pfet_03v3 L=2U W=2U AS=1.3P AD=1.3P PS=5.3U PD=5.3U
M$285 \$364 \$32 vg AVDD pfet_03v3 L=2U W=2U AS=1.3P AD=0.84P PS=5.3U PD=2.84U
M$286 vg \$32 \$364 AVDD pfet_03v3 L=2U W=2U AS=0.84P AD=0.84P PS=2.84U PD=2.84U
M$287 \$364 \$32 vg AVDD pfet_03v3 L=2U W=2U AS=0.84P AD=0.84P PS=2.84U PD=2.84U
M$288 vg \$32 \$364 AVDD pfet_03v3 L=2U W=2U AS=0.84P AD=1.3P PS=2.84U PD=5.3U
M$289 \$248 \$32 \$370 AVDD pfet_03v3 L=2U W=2U AS=1.3P AD=0.84P PS=5.3U
+ PD=2.84U
M$290 \$370 \$32 \$248 AVDD pfet_03v3 L=2U W=2U AS=0.84P AD=0.84P PS=2.84U
+ PD=2.84U
M$291 \$248 \$32 \$370 AVDD pfet_03v3 L=2U W=2U AS=0.84P AD=1.3P PS=2.84U
+ PD=5.3U
M$292 \$364 \$32 vg AVDD pfet_03v3 L=2U W=2U AS=1.3P AD=0.84P PS=5.3U PD=2.84U
M$293 vg \$32 \$364 AVDD pfet_03v3 L=2U W=2U AS=0.84P AD=0.84P PS=2.84U PD=2.84U
M$294 \$364 \$32 vg AVDD pfet_03v3 L=2U W=2U AS=0.84P AD=0.84P PS=2.84U PD=2.84U
M$295 vg \$32 \$364 AVDD pfet_03v3 L=2U W=2U AS=0.84P AD=1.3P PS=2.84U PD=5.3U
M$296 AVDD AVDD AVDD AVDD pfet_03v3 L=2U W=2U AS=1.3P AD=1.3P PS=5.3U PD=5.3U
M$297 AVDD AVDD AVDD AVDD pfet_03v3 L=2U W=2U AS=1.3P AD=1.3P PS=5.3U PD=5.3U
M$298 \$369 Vin \$17 AVDD pfet_03v3 L=2U W=2U AS=1.3P AD=0.84P PS=5.3U PD=2.84U
M$299 \$17 Vin \$369 AVDD pfet_03v3 L=2U W=2U AS=0.84P AD=0.84P PS=2.84U
+ PD=2.84U
M$300 \$369 Vin \$17 AVDD pfet_03v3 L=2U W=2U AS=0.84P AD=0.84P PS=2.84U
+ PD=2.84U
M$301 \$17 Vin \$369 AVDD pfet_03v3 L=2U W=2U AS=0.84P AD=1.3P PS=2.84U PD=5.3U
M$302 \$26 vref_off \$369 AVDD pfet_03v3 L=2U W=2U AS=1.3P AD=0.84P PS=5.3U
+ PD=2.84U
M$303 \$369 vref_off \$26 AVDD pfet_03v3 L=2U W=2U AS=0.84P AD=0.84P PS=2.84U
+ PD=2.84U
M$304 \$26 vref_off \$369 AVDD pfet_03v3 L=2U W=2U AS=0.84P AD=1.3P PS=2.84U
+ PD=5.3U
M$305 \$369 Vin \$17 AVDD pfet_03v3 L=2U W=2U AS=1.3P AD=0.84P PS=5.3U PD=2.84U
M$306 \$17 Vin \$369 AVDD pfet_03v3 L=2U W=2U AS=0.84P AD=0.84P PS=2.84U
+ PD=2.84U
M$307 \$369 Vin \$17 AVDD pfet_03v3 L=2U W=2U AS=0.84P AD=0.84P PS=2.84U
+ PD=2.84U
M$308 \$17 Vin \$369 AVDD pfet_03v3 L=2U W=2U AS=0.84P AD=1.3P PS=2.84U PD=5.3U
M$309 AVDD AVDD AVDD AVDD pfet_03v3 L=2U W=2U AS=1.3P AD=1.3P PS=5.3U PD=5.3U
M$310 AVDD AVDD AVDD AVDD pfet_03v3 L=2U W=2U AS=1.3P AD=1.3P PS=5.3U PD=5.3U
M$311 \$369 Vin \$17 AVDD pfet_03v3 L=2U W=2U AS=1.3P AD=0.84P PS=5.3U PD=2.84U
M$312 \$17 Vin \$369 AVDD pfet_03v3 L=2U W=2U AS=0.84P AD=0.84P PS=2.84U
+ PD=2.84U
M$313 \$369 Vin \$17 AVDD pfet_03v3 L=2U W=2U AS=0.84P AD=0.84P PS=2.84U
+ PD=2.84U
M$314 \$17 Vin \$369 AVDD pfet_03v3 L=2U W=2U AS=0.84P AD=1.3P PS=2.84U PD=5.3U
M$315 \$26 vref_off \$369 AVDD pfet_03v3 L=2U W=2U AS=1.3P AD=0.84P PS=5.3U
+ PD=2.84U
M$316 \$369 vref_off \$26 AVDD pfet_03v3 L=2U W=2U AS=0.84P AD=0.84P PS=2.84U
+ PD=2.84U
M$317 \$26 vref_off \$369 AVDD pfet_03v3 L=2U W=2U AS=0.84P AD=1.3P PS=2.84U
+ PD=5.3U
M$318 \$369 Vin \$17 AVDD pfet_03v3 L=2U W=2U AS=1.3P AD=0.84P PS=5.3U PD=2.84U
M$319 \$17 Vin \$369 AVDD pfet_03v3 L=2U W=2U AS=0.84P AD=0.84P PS=2.84U
+ PD=2.84U
M$320 \$369 Vin \$17 AVDD pfet_03v3 L=2U W=2U AS=0.84P AD=0.84P PS=2.84U
+ PD=2.84U
M$321 \$17 Vin \$369 AVDD pfet_03v3 L=2U W=2U AS=0.84P AD=1.3P PS=2.84U PD=5.3U
M$322 AVDD AVDD AVDD AVDD pfet_03v3 L=2U W=2U AS=1.3P AD=1.3P PS=5.3U PD=5.3U
M$323 AVDD AVDD AVDD AVDD pfet_03v3 L=2U W=2U AS=1.3P AD=1.3P PS=5.3U PD=5.3U
M$324 \$364 \$32 vg AVDD pfet_03v3 L=2U W=2U AS=1.3P AD=0.84P PS=5.3U PD=2.84U
M$325 vg \$32 \$364 AVDD pfet_03v3 L=2U W=2U AS=0.84P AD=0.84P PS=2.84U PD=2.84U
M$326 \$364 \$32 vg AVDD pfet_03v3 L=2U W=2U AS=0.84P AD=0.84P PS=2.84U PD=2.84U
M$327 vg \$32 \$364 AVDD pfet_03v3 L=2U W=2U AS=0.84P AD=1.3P PS=2.84U PD=5.3U
M$328 \$248 \$32 \$370 AVDD pfet_03v3 L=2U W=2U AS=1.3P AD=0.84P PS=5.3U
+ PD=2.84U
M$329 \$370 \$32 \$248 AVDD pfet_03v3 L=2U W=2U AS=0.84P AD=0.84P PS=2.84U
+ PD=2.84U
M$330 \$248 \$32 \$370 AVDD pfet_03v3 L=2U W=2U AS=0.84P AD=1.3P PS=2.84U
+ PD=5.3U
M$331 \$364 \$32 vg AVDD pfet_03v3 L=2U W=2U AS=1.3P AD=0.84P PS=5.3U PD=2.84U
M$332 vg \$32 \$364 AVDD pfet_03v3 L=2U W=2U AS=0.84P AD=0.84P PS=2.84U PD=2.84U
M$333 \$364 \$32 vg AVDD pfet_03v3 L=2U W=2U AS=0.84P AD=0.84P PS=2.84U PD=2.84U
M$334 vg \$32 \$364 AVDD pfet_03v3 L=2U W=2U AS=0.84P AD=1.3P PS=2.84U PD=5.3U
M$335 AVDD AVDD AVDD AVDD pfet_03v3 L=2U W=2U AS=1.3P AD=1.3P PS=5.3U PD=5.3U
M$336 AVDD AVDD AVDD AVDD pfet_03v3 L=2U W=2U AS=1.3P AD=1.3P PS=5.3U PD=5.3U
M$337 \$364 \$32 vg AVDD pfet_03v3 L=2U W=2U AS=1.3P AD=0.84P PS=5.3U PD=2.84U
M$338 vg \$32 \$364 AVDD pfet_03v3 L=2U W=2U AS=0.84P AD=0.84P PS=2.84U PD=2.84U
M$339 \$364 \$32 vg AVDD pfet_03v3 L=2U W=2U AS=0.84P AD=0.84P PS=2.84U PD=2.84U
M$340 vg \$32 \$364 AVDD pfet_03v3 L=2U W=2U AS=0.84P AD=1.3P PS=2.84U PD=5.3U
M$341 \$248 \$32 \$370 AVDD pfet_03v3 L=2U W=2U AS=1.3P AD=0.84P PS=5.3U
+ PD=2.84U
M$342 \$370 \$32 \$248 AVDD pfet_03v3 L=2U W=2U AS=0.84P AD=0.84P PS=2.84U
+ PD=2.84U
M$343 \$248 \$32 \$370 AVDD pfet_03v3 L=2U W=2U AS=0.84P AD=1.3P PS=2.84U
+ PD=5.3U
M$344 \$364 \$32 vg AVDD pfet_03v3 L=2U W=2U AS=1.3P AD=0.84P PS=5.3U PD=2.84U
M$345 vg \$32 \$364 AVDD pfet_03v3 L=2U W=2U AS=0.84P AD=0.84P PS=2.84U PD=2.84U
M$346 \$364 \$32 vg AVDD pfet_03v3 L=2U W=2U AS=0.84P AD=0.84P PS=2.84U PD=2.84U
M$347 vg \$32 \$364 AVDD pfet_03v3 L=2U W=2U AS=0.84P AD=1.3P PS=2.84U PD=5.3U
M$348 AVDD AVDD AVDD AVDD pfet_03v3 L=2U W=2U AS=1.3P AD=1.3P PS=5.3U PD=5.3U
M$349 AVDD AVDD AVDD AVDD pfet_03v3 L=2U W=2U AS=1.3P AD=1.3P PS=5.3U PD=5.3U
M$350 \$369 vref_off \$26 AVDD pfet_03v3 L=2U W=2U AS=1.3P AD=0.84P PS=5.3U
+ PD=2.84U
M$351 \$26 vref_off \$369 AVDD pfet_03v3 L=2U W=2U AS=0.84P AD=0.84P PS=2.84U
+ PD=2.84U
M$352 \$369 vref_off \$26 AVDD pfet_03v3 L=2U W=2U AS=0.84P AD=0.84P PS=2.84U
+ PD=2.84U
M$353 \$26 vref_off \$369 AVDD pfet_03v3 L=2U W=2U AS=0.84P AD=1.3P PS=2.84U
+ PD=5.3U
M$354 \$17 Vin \$369 AVDD pfet_03v3 L=2U W=2U AS=1.3P AD=0.84P PS=5.3U PD=2.84U
M$355 \$369 Vin \$17 AVDD pfet_03v3 L=2U W=2U AS=0.84P AD=0.84P PS=2.84U
+ PD=2.84U
M$356 \$17 Vin \$369 AVDD pfet_03v3 L=2U W=2U AS=0.84P AD=1.3P PS=2.84U PD=5.3U
M$357 \$369 vref_off \$26 AVDD pfet_03v3 L=2U W=2U AS=1.3P AD=0.84P PS=5.3U
+ PD=2.84U
M$358 \$26 vref_off \$369 AVDD pfet_03v3 L=2U W=2U AS=0.84P AD=0.84P PS=2.84U
+ PD=2.84U
M$359 \$369 vref_off \$26 AVDD pfet_03v3 L=2U W=2U AS=0.84P AD=0.84P PS=2.84U
+ PD=2.84U
M$360 \$26 vref_off \$369 AVDD pfet_03v3 L=2U W=2U AS=0.84P AD=1.3P PS=2.84U
+ PD=5.3U
M$361 AVDD AVDD AVDD AVDD pfet_03v3 L=2U W=2U AS=1.3P AD=1.3P PS=5.3U PD=5.3U
M$362 AVDD AVDD AVDD AVDD pfet_03v3 L=2U W=2U AS=1.3P AD=1.3P PS=5.3U PD=5.3U
M$363 \$369 vref_off \$26 AVDD pfet_03v3 L=2U W=2U AS=1.3P AD=0.84P PS=5.3U
+ PD=2.84U