* Extracted by KLayout with GF180MCU LVS runset on : 11/04/2024 17:23

.SUBCKT TopLevelLDO GND AVDD ibias Vout vref
M$1 AVDD AVDD AVDD AVDD pfet_03v3 L=2U W=2U AS=1.3P AD=1.3P PS=5.3U PD=5.3U
M$2 AVDD AVDD AVDD AVDD pfet_03v3 L=2U W=2U AS=1.3P AD=0.84P PS=5.3U PD=2.84U
M$3 AVDD AVDD AVDD AVDD pfet_03v3 L=2U W=2U AS=0.84P AD=0.84P PS=2.84U PD=2.84U
M$4 AVDD AVDD AVDD AVDD pfet_03v3 L=2U W=2U AS=0.84P AD=0.84P PS=2.84U PD=2.84U
M$5 AVDD AVDD AVDD AVDD pfet_03v3 L=2U W=2U AS=0.84P AD=1.3P PS=2.84U PD=5.3U
M$6 AVDD AVDD AVDD AVDD pfet_03v3 L=2U W=2U AS=1.3P AD=0.84P PS=5.3U PD=2.84U
M$7 AVDD AVDD AVDD AVDD pfet_03v3 L=2U W=2U AS=0.84P AD=0.84P PS=2.84U PD=2.84U
M$8 AVDD AVDD AVDD AVDD pfet_03v3 L=2U W=2U AS=0.84P AD=1.3P PS=2.84U PD=5.3U
M$9 AVDD AVDD AVDD AVDD pfet_03v3 L=2U W=2U AS=1.3P AD=0.84P PS=5.3U PD=2.84U
M$10 AVDD AVDD AVDD AVDD pfet_03v3 L=2U W=2U AS=0.84P AD=0.84P PS=2.84U PD=2.84U
M$11 AVDD AVDD AVDD AVDD pfet_03v3 L=2U W=2U AS=0.84P AD=0.84P PS=2.84U PD=2.84U
M$12 AVDD AVDD AVDD AVDD pfet_03v3 L=2U W=2U AS=0.84P AD=1.3P PS=2.84U PD=5.3U
M$13 AVDD AVDD AVDD AVDD pfet_03v3 L=2U W=2U AS=1.3P AD=1.3P PS=5.3U PD=5.3U
M$14 AVDD AVDD AVDD AVDD pfet_03v3 L=2U W=1.2U AS=0.78P AD=0.78P PS=3.7U PD=3.7U
M$15 AVDD AVDD AVDD AVDD pfet_03v3 L=2U W=1.2U AS=0.78P AD=0.504P PS=3.7U
+ PD=2.04U
M$16 AVDD AVDD AVDD AVDD pfet_03v3 L=2U W=1.2U AS=0.504P AD=0.504P PS=2.04U
+ PD=2.04U
M$17 AVDD AVDD AVDD AVDD pfet_03v3 L=2U W=1.2U AS=0.504P AD=0.78P PS=2.04U
+ PD=3.7U
M$18 AVDD AVDD AVDD AVDD pfet_03v3 L=2U W=1.2U AS=0.78P AD=0.78P PS=3.7U PD=3.7U
M$19 AVDD AVDD AVDD AVDD pfet_03v3 L=2U W=1.2U AS=0.78P AD=0.78P PS=3.7U PD=3.7U
M$20 AVDD AVDD AVDD AVDD pfet_03v3 L=2U W=2U AS=1.3P AD=1.3P PS=5.3U PD=5.3U
M$21 AVDD AVDD AVDD AVDD pfet_03v3 L=2U W=2U AS=1.3P AD=0.84P PS=5.3U PD=2.84U
M$22 AVDD AVDD AVDD AVDD pfet_03v3 L=2U W=2U AS=0.84P AD=0.84P PS=2.84U PD=2.84U
M$23 AVDD AVDD AVDD AVDD pfet_03v3 L=2U W=2U AS=0.84P AD=0.84P PS=2.84U PD=2.84U
M$24 AVDD AVDD AVDD AVDD pfet_03v3 L=2U W=2U AS=0.84P AD=1.3P PS=2.84U PD=5.3U
M$25 AVDD AVDD AVDD AVDD pfet_03v3 L=2U W=2U AS=1.3P AD=0.84P PS=5.3U PD=2.84U
M$26 AVDD AVDD AVDD AVDD pfet_03v3 L=2U W=2U AS=0.84P AD=0.84P PS=2.84U PD=2.84U
M$27 AVDD AVDD AVDD AVDD pfet_03v3 L=2U W=2U AS=0.84P AD=1.3P PS=2.84U PD=5.3U
M$28 AVDD AVDD AVDD AVDD pfet_03v3 L=2U W=2U AS=1.3P AD=0.84P PS=5.3U PD=2.84U
M$29 AVDD AVDD AVDD AVDD pfet_03v3 L=2U W=2U AS=0.84P AD=0.84P PS=2.84U PD=2.84U
M$30 AVDD AVDD AVDD AVDD pfet_03v3 L=2U W=2U AS=0.84P AD=0.84P PS=2.84U PD=2.84U
M$31 AVDD AVDD AVDD AVDD pfet_03v3 L=2U W=2U AS=0.84P AD=1.3P PS=2.84U PD=5.3U
M$32 AVDD AVDD AVDD AVDD pfet_03v3 L=2U W=2U AS=1.3P AD=1.3P PS=5.3U PD=5.3U
M$33 AVDD AVDD AVDD AVDD pfet_03v3 L=2U W=1.2U AS=0.78P AD=0.78P PS=3.7U PD=3.7U
M$34 AVDD AVDD AVDD AVDD pfet_03v3 L=2U W=1.2U AS=0.78P AD=0.504P PS=3.7U
+ PD=2.04U
M$35 AVDD AVDD AVDD AVDD pfet_03v3 L=2U W=1.2U AS=0.504P AD=0.504P PS=2.04U
+ PD=2.04U
M$36 AVDD AVDD AVDD AVDD pfet_03v3 L=2U W=1.2U AS=0.504P AD=0.78P PS=2.04U
+ PD=3.7U
M$37 AVDD AVDD AVDD AVDD pfet_03v3 L=2U W=1.2U AS=0.78P AD=0.78P PS=3.7U PD=3.7U
M$38 AVDD AVDD AVDD AVDD pfet_03v3 L=2U W=1.2U AS=0.78P AD=0.78P PS=3.7U PD=3.7U
M$39 AVDD AVDD AVDD AVDD pfet_03v3 L=2U W=2U AS=1.3P AD=1.3P PS=5.3U PD=5.3U
M$40 AVDD \$275 \$275 AVDD pfet_03v3 L=2U W=2U AS=1.3P AD=0.84P PS=5.3U PD=2.84U
M$41 \$275 \$275 AVDD AVDD pfet_03v3 L=2U W=2U AS=0.84P AD=0.84P PS=2.84U
+ PD=2.84U
M$42 AVDD \$275 \$275 AVDD pfet_03v3 L=2U W=2U AS=0.84P AD=0.84P PS=2.84U
+ PD=2.84U
M$43 \$275 \$275 AVDD AVDD pfet_03v3 L=2U W=2U AS=0.84P AD=1.3P PS=2.84U PD=5.3U
M$44 AVDD \$275 \$141 AVDD pfet_03v3 L=2U W=2U AS=1.3P AD=0.84P PS=5.3U PD=2.84U
M$45 \$141 \$275 AVDD AVDD pfet_03v3 L=2U W=2U AS=0.84P AD=0.84P PS=2.84U
+ PD=2.84U
M$46 AVDD \$275 \$141 AVDD pfet_03v3 L=2U W=2U AS=0.84P AD=1.3P PS=2.84U PD=5.3U
M$47 AVDD \$275 \$275 AVDD pfet_03v3 L=2U W=2U AS=1.3P AD=0.84P PS=5.3U PD=2.84U
M$48 \$275 \$275 AVDD AVDD pfet_03v3 L=2U W=2U AS=0.84P AD=0.84P PS=2.84U
+ PD=2.84U
M$49 AVDD \$275 \$275 AVDD pfet_03v3 L=2U W=2U AS=0.84P AD=0.84P PS=2.84U
+ PD=2.84U
M$50 \$275 \$275 AVDD AVDD pfet_03v3 L=2U W=2U AS=0.84P AD=1.3P PS=2.84U PD=5.3U
M$51 AVDD AVDD AVDD AVDD pfet_03v3 L=2U W=2U AS=1.3P AD=1.3P PS=5.3U PD=5.3U
M$52 AVDD AVDD AVDD AVDD pfet_03v3 L=2U W=1.2U AS=0.78P AD=0.78P PS=3.7U PD=3.7U
M$53 \$333 \$63 \$332 AVDD pfet_03v3 L=2U W=1.2U AS=0.78P AD=0.504P PS=3.7U
+ PD=2.04U
M$54 \$334 \$63 \$333 AVDD pfet_03v3 L=2U W=1.2U AS=0.504P AD=0.504P PS=2.04U
+ PD=2.04U
M$55 AVDD \$63 \$334 AVDD pfet_03v3 L=2U W=1.2U AS=0.504P AD=0.78P PS=2.04U
+ PD=3.7U
M$56 AVDD AVDD AVDD AVDD pfet_03v3 L=2U W=1.2U AS=0.78P AD=0.78P PS=3.7U PD=3.7U
M$57 AVDD AVDD AVDD AVDD pfet_03v3 L=2U W=1.2U AS=0.78P AD=0.78P PS=3.7U PD=3.7U
M$58 AVDD AVDD AVDD AVDD pfet_03v3 L=2U W=2U AS=1.3P AD=1.3P PS=5.3U PD=5.3U
M$59 AVDD \$276 \$276 AVDD pfet_03v3 L=2U W=2U AS=1.3P AD=0.84P PS=5.3U PD=2.84U
M$60 \$276 \$276 AVDD AVDD pfet_03v3 L=2U W=2U AS=0.84P AD=0.84P PS=2.84U
+ PD=2.84U
M$61 AVDD \$276 \$276 AVDD pfet_03v3 L=2U W=2U AS=0.84P AD=0.84P PS=2.84U
+ PD=2.84U
M$62 \$276 \$276 AVDD AVDD pfet_03v3 L=2U W=2U AS=0.84P AD=1.3P PS=2.84U PD=5.3U
M$63 AVDD \$276 \$142 AVDD pfet_03v3 L=2U W=2U AS=1.3P AD=0.84P PS=5.3U PD=2.84U
M$64 \$142 \$276 AVDD AVDD pfet_03v3 L=2U W=2U AS=0.84P AD=0.84P PS=2.84U
+ PD=2.84U
M$65 AVDD \$276 \$142 AVDD pfet_03v3 L=2U W=2U AS=0.84P AD=1.3P PS=2.84U PD=5.3U
M$66 AVDD \$276 \$276 AVDD pfet_03v3 L=2U W=2U AS=1.3P AD=0.84P PS=5.3U PD=2.84U
M$67 \$276 \$276 AVDD AVDD pfet_03v3 L=2U W=2U AS=0.84P AD=0.84P PS=2.84U
+ PD=2.84U
M$68 AVDD \$276 \$276 AVDD pfet_03v3 L=2U W=2U AS=0.84P AD=0.84P PS=2.84U
+ PD=2.84U
M$69 \$276 \$276 AVDD AVDD pfet_03v3 L=2U W=2U AS=0.84P AD=1.3P PS=2.84U PD=5.3U
M$70 AVDD AVDD AVDD AVDD pfet_03v3 L=2U W=2U AS=1.3P AD=1.3P PS=5.3U PD=5.3U
M$71 AVDD AVDD AVDD AVDD pfet_03v3 L=2U W=1.2U AS=0.78P AD=0.78P PS=3.7U PD=3.7U
M$72 \$336 \$64 \$335 AVDD pfet_03v3 L=2U W=1.2U AS=0.78P AD=0.504P PS=3.7U
+ PD=2.04U
M$73 \$337 \$64 \$336 AVDD pfet_03v3 L=2U W=1.2U AS=0.504P AD=0.504P PS=2.04U
+ PD=2.04U
M$74 AVDD \$64 \$337 AVDD pfet_03v3 L=2U W=1.2U AS=0.504P AD=0.78P PS=2.04U
+ PD=3.7U
M$75 AVDD AVDD AVDD AVDD pfet_03v3 L=2U W=1.2U AS=0.78P AD=0.78P PS=3.7U PD=3.7U
M$76 AVDD AVDD AVDD AVDD pfet_03v3 L=2U W=1.2U AS=0.78P AD=0.78P PS=3.7U PD=3.7U
M$77 AVDD AVDD AVDD AVDD pfet_03v3 L=2U W=1.2U AS=0.78P AD=0.78P PS=3.7U PD=3.7U
M$78 AVDD AVDD AVDD AVDD pfet_03v3 L=2U W=1.2U AS=0.78P AD=0.78P PS=3.7U PD=3.7U
M$79 \$397 \$63 \$332 AVDD pfet_03v3 L=2U W=1.2U AS=0.78P AD=0.504P PS=3.7U
+ PD=2.04U
M$80 \$398 \$63 \$397 AVDD pfet_03v3 L=2U W=1.2U AS=0.504P AD=0.504P PS=2.04U
+ PD=2.04U
M$81 \$399 \$63 \$398 AVDD pfet_03v3 L=2U W=1.2U AS=0.504P AD=0.78P PS=2.04U
+ PD=3.7U
M$82 \$428 \$63 \$427 AVDD pfet_03v3 L=2U W=1.2U AS=0.78P AD=0.504P PS=3.7U
+ PD=2.04U
M$83 \$429 \$63 \$428 AVDD pfet_03v3 L=2U W=1.2U AS=0.504P AD=0.504P PS=2.04U
+ PD=2.04U
M$84 \$399 \$63 \$429 AVDD pfet_03v3 L=2U W=1.2U AS=0.504P AD=0.78P PS=2.04U
+ PD=3.7U
M$85 AVDD AVDD AVDD AVDD pfet_03v3 L=2U W=1.2U AS=0.78P AD=0.78P PS=3.7U PD=3.7U
M$86 AVDD AVDD AVDD AVDD pfet_03v3 L=2U W=1.2U AS=0.78P AD=0.78P PS=3.7U PD=3.7U
M$87 AVDD AVDD AVDD AVDD pfet_03v3 L=2U W=1.2U AS=0.78P AD=0.78P PS=3.7U PD=3.7U
M$88 AVDD AVDD AVDD AVDD pfet_03v3 L=2U W=1.2U AS=0.78P AD=0.78P PS=3.7U PD=3.7U
M$89 AVDD AVDD AVDD AVDD pfet_03v3 L=2U W=1.2U AS=0.78P AD=0.78P PS=3.7U PD=3.7U
M$90 AVDD AVDD AVDD AVDD pfet_03v3 L=2U W=1.2U AS=0.78P AD=0.78P PS=3.7U PD=3.7U
M$91 \$432 \$64 \$431 AVDD pfet_03v3 L=2U W=1.2U AS=0.78P AD=0.504P PS=3.7U
+ PD=2.04U
M$92 \$433 \$64 \$432 AVDD pfet_03v3 L=2U W=1.2U AS=0.504P AD=0.504P PS=2.04U
+ PD=2.04U
M$93 \$402 \$64 \$433 AVDD pfet_03v3 L=2U W=1.2U AS=0.504P AD=0.78P PS=2.04U
+ PD=3.7U
M$94 \$400 \$64 \$335 AVDD pfet_03v3 L=2U W=1.2U AS=0.78P AD=0.504P PS=3.7U
+ PD=2.04U
M$95 \$401 \$64 \$400 AVDD pfet_03v3 L=2U W=1.2U AS=0.504P AD=0.504P PS=2.04U
+ PD=2.04U
M$96 \$402 \$64 \$401 AVDD pfet_03v3 L=2U W=1.2U AS=0.504P AD=0.78P PS=2.04U
+ PD=3.7U
M$97 AVDD AVDD AVDD AVDD pfet_03v3 L=2U W=1.2U AS=0.78P AD=0.78P PS=3.7U PD=3.7U
M$98 AVDD AVDD AVDD AVDD pfet_03v3 L=2U W=1.2U AS=0.78P AD=0.78P PS=3.7U PD=3.7U
M$99 AVDD AVDD AVDD AVDD pfet_03v3 L=2U W=1.2U AS=0.78P AD=0.78P PS=3.7U PD=3.7U
M$100 AVDD AVDD AVDD AVDD pfet_03v3 L=2U W=1.2U AS=0.78P AD=0.78P PS=3.7U
+ PD=3.7U
M$101 AVDD AVDD AVDD AVDD pfet_03v3 L=2U W=2U AS=1.3P AD=1.3P PS=5.3U PD=5.3U
M$102 AVDD \$275 \$141 AVDD pfet_03v3 L=2U W=2U AS=1.3P AD=0.84P PS=5.3U
+ PD=2.84U
M$103 \$141 \$275 AVDD AVDD pfet_03v3 L=2U W=2U AS=0.84P AD=0.84P PS=2.84U
+ PD=2.84U
M$104 AVDD \$275 \$141 AVDD pfet_03v3 L=2U W=2U AS=0.84P AD=0.84P PS=2.84U
+ PD=2.84U
M$105 \$141 \$275 AVDD AVDD pfet_03v3 L=2U W=2U AS=0.84P AD=1.3P PS=2.84U
+ PD=5.3U
M$106 \$106 \$275 AVDD AVDD pfet_03v3 L=2U W=2U AS=1.3P AD=0.84P PS=5.3U
+ PD=2.84U
M$107 AVDD \$275 \$106 AVDD pfet_03v3 L=2U W=2U AS=0.84P AD=0.84P PS=2.84U
+ PD=2.84U
M$108 \$106 \$275 AVDD AVDD pfet_03v3 L=2U W=2U AS=0.84P AD=1.3P PS=2.84U
+ PD=5.3U
M$109 AVDD \$275 \$141 AVDD pfet_03v3 L=2U W=2U AS=1.3P AD=0.84P PS=5.3U
+ PD=2.84U
M$110 \$141 \$275 AVDD AVDD pfet_03v3 L=2U W=2U AS=0.84P AD=0.84P PS=2.84U
+ PD=2.84U
M$111 AVDD \$275 \$141 AVDD pfet_03v3 L=2U W=2U AS=0.84P AD=0.84P PS=2.84U
+ PD=2.84U
M$112 \$141 \$275 AVDD AVDD pfet_03v3 L=2U W=2U AS=0.84P AD=1.3P PS=2.84U
+ PD=5.3U
M$113 AVDD AVDD AVDD AVDD pfet_03v3 L=2U W=2U AS=1.3P AD=1.3P PS=5.3U PD=5.3U
M$114 AVDD AVDD AVDD AVDD pfet_03v3 L=2U W=2U AS=1.3P AD=1.3P PS=5.3U PD=5.3U
M$115 AVDD \$276 \$142 AVDD pfet_03v3 L=2U W=2U AS=1.3P AD=0.84P PS=5.3U
+ PD=2.84U
M$116 \$142 \$276 AVDD AVDD pfet_03v3 L=2U W=2U AS=0.84P AD=0.84P PS=2.84U
+ PD=2.84U
M$117 AVDD \$276 \$142 AVDD pfet_03v3 L=2U W=2U AS=0.84P AD=0.84P PS=2.84U
+ PD=2.84U
M$118 \$142 \$276 AVDD AVDD pfet_03v3 L=2U W=2U AS=0.84P AD=1.3P PS=2.84U
+ PD=5.3U
M$119 \$107 \$276 AVDD AVDD pfet_03v3 L=2U W=2U AS=1.3P AD=0.84P PS=5.3U
+ PD=2.84U
M$120 AVDD \$276 \$107 AVDD pfet_03v3 L=2U W=2U AS=0.84P AD=0.84P PS=2.84U
+ PD=2.84U
M$121 \$107 \$276 AVDD AVDD pfet_03v3 L=2U W=2U AS=0.84P AD=1.3P PS=2.84U
+ PD=5.3U
M$122 AVDD \$276 \$142 AVDD pfet_03v3 L=2U W=2U AS=1.3P AD=0.84P PS=5.3U
+ PD=2.84U
M$123 \$142 \$276 AVDD AVDD pfet_03v3 L=2U W=2U AS=0.84P AD=0.84P PS=2.84U
+ PD=2.84U
M$124 AVDD \$276 \$142 AVDD pfet_03v3 L=2U W=2U AS=0.84P AD=0.84P PS=2.84U
+ PD=2.84U
M$125 \$142 \$276 AVDD AVDD pfet_03v3 L=2U W=2U AS=0.84P AD=1.3P PS=2.84U
+ PD=5.3U
M$126 AVDD AVDD AVDD AVDD pfet_03v3 L=2U W=2U AS=1.3P AD=1.3P PS=5.3U PD=5.3U
M$127 AVDD AVDD AVDD AVDD pfet_03v3 L=2U W=2U AS=1.3P AD=1.3P PS=5.3U PD=5.3U
M$128 AVDD \$275 \$106 AVDD pfet_03v3 L=2U W=2U AS=1.3P AD=0.84P PS=5.3U
+ PD=2.84U
M$129 \$106 \$275 AVDD AVDD pfet_03v3 L=2U W=2U AS=0.84P AD=0.84P PS=2.84U
+ PD=2.84U
M$130 AVDD \$275 \$106 AVDD pfet_03v3 L=2U W=2U AS=0.84P AD=0.84P PS=2.84U
+ PD=2.84U
M$131 \$106 \$275 AVDD AVDD pfet_03v3 L=2U W=2U AS=0.84P AD=1.3P PS=2.84U
+ PD=5.3U
M$132 AVDD \$275 \$275 AVDD pfet_03v3 L=2U W=2U AS=1.3P AD=0.84P PS=5.3U
+ PD=2.84U
M$133 \$275 \$275 AVDD AVDD pfet_03v3 L=2U W=2U AS=0.84P AD=0.84P PS=2.84U
+ PD=2.84U
M$134 AVDD \$275 \$275 AVDD pfet_03v3 L=2U W=2U AS=0.84P AD=1.3P PS=2.84U
+ PD=5.3U
M$135 AVDD \$275 \$106 AVDD pfet_03v3 L=2U W=2U AS=1.3P AD=0.84P PS=5.3U
+ PD=2.84U
M$136 \$106 \$275 AVDD AVDD pfet_03v3 L=2U W=2U AS=0.84P AD=0.84P PS=2.84U
+ PD=2.84U
M$137 AVDD \$275 \$106 AVDD pfet_03v3 L=2U W=2U AS=0.84P AD=0.84P PS=2.84U
+ PD=2.84U
M$138 \$106 \$275 AVDD AVDD pfet_03v3 L=2U W=2U AS=0.84P AD=1.3P PS=2.84U
+ PD=5.3U
M$139 AVDD AVDD AVDD AVDD pfet_03v3 L=2U W=2U AS=1.3P AD=1.3P PS=5.3U PD=5.3U
M$140 AVDD AVDD AVDD AVDD pfet_03v3 L=2U W=1.2U AS=0.78P AD=0.78P PS=3.7U
+ PD=3.7U
M$141 \$456 \$63 \$427 AVDD pfet_03v3 L=2U W=1.2U AS=0.78P AD=0.504P PS=3.7U
+ PD=2.04U
M$142 \$457 \$63 \$456 AVDD pfet_03v3 L=2U W=1.2U AS=0.504P AD=0.504P PS=2.04U
+ PD=2.04U
M$143 \$458 \$63 \$457 AVDD pfet_03v3 L=2U W=1.2U AS=0.504P AD=0.78P PS=2.04U
+ PD=3.7U
M$144 \$63 \$63 \$458 AVDD pfet_03v3 L=2U W=1.2U AS=0.78P AD=0.78P PS=3.7U
+ PD=3.7U
M$145 AVDD AVDD AVDD AVDD pfet_03v3 L=2U W=1.2U AS=0.78P AD=0.78P PS=3.7U
+ PD=3.7U
M$146 AVDD AVDD AVDD AVDD pfet_03v3 L=2U W=2U AS=1.3P AD=1.3P PS=5.3U PD=5.3U
M$147 AVDD \$276 \$107 AVDD pfet_03v3 L=2U W=2U AS=1.3P AD=0.84P PS=5.3U
+ PD=2.84U
M$148 \$107 \$276 AVDD AVDD pfet_03v3 L=2U W=2U AS=0.84P AD=0.84P PS=2.84U
+ PD=2.84U
M$149 AVDD \$276 \$107 AVDD pfet_03v3 L=2U W=2U AS=0.84P AD=0.84P PS=2.84U
+ PD=2.84U
M$150 \$107 \$276 AVDD AVDD pfet_03v3 L=2U W=2U AS=0.84P AD=1.3P PS=2.84U
+ PD=5.3U
M$151 AVDD \$276 \$276 AVDD pfet_03v3 L=2U W=2U AS=1.3P AD=0.84P PS=5.3U
+ PD=2.84U
M$152 \$276 \$276 AVDD AVDD pfet_03v3 L=2U W=2U AS=0.84P AD=0.84P PS=2.84U
+ PD=2.84U
M$153 AVDD \$276 \$276 AVDD pfet_03v3 L=2U W=2U AS=0.84P AD=1.3P PS=2.84U
+ PD=5.3U
M$154 AVDD \$276 \$107 AVDD pfet_03v3 L=2U W=2U AS=1.3P AD=0.84P PS=5.3U
+ PD=2.84U
M$155 \$107 \$276 AVDD AVDD pfet_03v3 L=2U W=2U AS=0.84P AD=0.84P PS=2.84U
+ PD=2.84U
M$156 AVDD \$276 \$107 AVDD pfet_03v3 L=2U W=2U AS=0.84P AD=0.84P PS=2.84U
+ PD=2.84U
M$157 \$107 \$276 AVDD AVDD pfet_03v3 L=2U W=2U AS=0.84P AD=1.3P PS=2.84U
+ PD=5.3U
M$158 AVDD AVDD AVDD AVDD pfet_03v3 L=2U W=2U AS=1.3P AD=1.3P PS=5.3U PD=5.3U
M$159 AVDD AVDD AVDD AVDD pfet_03v3 L=2U W=1.2U AS=0.78P AD=0.78P PS=3.7U
+ PD=3.7U
M$160 \$459 \$64 \$431 AVDD pfet_03v3 L=2U W=1.2U AS=0.78P AD=0.504P PS=3.7U
+ PD=2.04U
M$161 \$460 \$64 \$459 AVDD pfet_03v3 L=2U W=1.2U AS=0.504P AD=0.504P PS=2.04U
+ PD=2.04U
M$162 \$461 \$64 \$460 AVDD pfet_03v3 L=2U W=1.2U AS=0.504P AD=0.78P PS=2.04U
+ PD=3.7U
M$163 \$64 \$64 \$461 AVDD pfet_03v3 L=2U W=1.2U AS=0.78P AD=0.78P PS=3.7U
+ PD=3.7U
M$164 AVDD AVDD AVDD AVDD pfet_03v3 L=2U W=1.2U AS=0.78P AD=0.78P PS=3.7U
+ PD=3.7U
M$165 AVDD AVDD AVDD AVDD pfet_03v3 L=2U W=2U AS=1.3P AD=1.3P PS=5.3U PD=5.3U
M$166 AVDD \$275 \$106 AVDD pfet_03v3 L=2U W=2U AS=1.3P AD=0.84P PS=5.3U
+ PD=2.84U
M$167 \$106 \$275 AVDD AVDD pfet_03v3 L=2U W=2U AS=0.84P AD=0.84P PS=2.84U
+ PD=2.84U
M$168 AVDD \$275 \$106 AVDD pfet_03v3 L=2U W=2U AS=0.84P AD=0.84P PS=2.84U
+ PD=2.84U
M$169 \$106 \$275 AVDD AVDD pfet_03v3 L=2U W=2U AS=0.84P AD=1.3P PS=2.84U
+ PD=5.3U
M$170 AVDD \$275 \$275 AVDD pfet_03v3 L=2U W=2U AS=1.3P AD=0.84P PS=5.3U
+ PD=2.84U
M$171 \$275 \$275 AVDD AVDD pfet_03v3 L=2U W=2U AS=0.84P AD=0.84P PS=2.84U
+ PD=2.84U
M$172 AVDD \$275 \$275 AVDD pfet_03v3 L=2U W=2U AS=0.84P AD=1.3P PS=2.84U
+ PD=5.3U
M$173 AVDD \$275 \$106 AVDD pfet_03v3 L=2U W=2U AS=1.3P AD=0.84P PS=5.3U
+ PD=2.84U
M$174 \$106 \$275 AVDD AVDD pfet_03v3 L=2U W=2U AS=0.84P AD=0.84P PS=2.84U
+ PD=2.84U
M$175 AVDD \$275 \$106 AVDD pfet_03v3 L=2U W=2U AS=0.84P AD=0.84P PS=2.84U
+ PD=2.84U
M$176 \$106 \$275 AVDD AVDD pfet_03v3 L=2U W=2U AS=0.84P AD=1.3P PS=2.84U
+ PD=5.3U
M$177 AVDD AVDD AVDD AVDD pfet_03v3 L=2U W=2U AS=1.3P AD=1.3P PS=5.3U PD=5.3U
M$178 AVDD AVDD AVDD AVDD pfet_03v3 L=2U W=1.2U AS=0.78P AD=0.78P PS=3.7U
+ PD=3.7U
M$179 AVDD AVDD AVDD AVDD pfet_03v3 L=2U W=1.2U AS=0.78P AD=0.504P PS=3.7U
+ PD=2.04U
M$180 AVDD AVDD AVDD AVDD pfet_03v3 L=2U W=1.2U AS=0.504P AD=0.504P PS=2.04U
+ PD=2.04U
M$181 AVDD AVDD AVDD AVDD pfet_03v3 L=2U W=1.2U AS=0.504P AD=0.78P PS=2.04U
+ PD=3.7U
M$182 AVDD AVDD AVDD AVDD pfet_03v3 L=2U W=1.2U AS=0.78P AD=0.78P PS=3.7U
+ PD=3.7U
M$183 AVDD AVDD AVDD AVDD pfet_03v3 L=2U W=1.2U AS=0.78P AD=0.78P PS=3.7U
+ PD=3.7U
M$184 AVDD AVDD AVDD AVDD pfet_03v3 L=2U W=2U AS=1.3P AD=1.3P PS=5.3U PD=5.3U
M$185 AVDD \$276 \$107 AVDD pfet_03v3 L=2U W=2U AS=1.3P AD=0.84P PS=5.3U
+ PD=2.84U
M$186 \$107 \$276 AVDD AVDD pfet_03v3 L=2U W=2U AS=0.84P AD=0.84P PS=2.84U
+ PD=2.84U
M$187 AVDD \$276 \$107 AVDD pfet_03v3 L=2U W=2U AS=0.84P AD=0.84P PS=2.84U
+ PD=2.84U
M$188 \$107 \$276 AVDD AVDD pfet_03v3 L=2U W=2U AS=0.84P AD=1.3P PS=2.84U
+ PD=5.3U
M$189 AVDD \$276 \$276 AVDD pfet_03v3 L=2U W=2U AS=1.3P AD=0.84P PS=5.3U
+ PD=2.84U
M$190 \$276 \$276 AVDD AVDD pfet_03v3 L=2U W=2U AS=0.84P AD=0.84P PS=2.84U
+ PD=2.84U
M$191 AVDD \$276 \$276 AVDD pfet_03v3 L=2U W=2U AS=0.84P AD=1.3P PS=2.84U
+ PD=5.3U
M$192 AVDD \$276 \$107 AVDD pfet_03v3 L=2U W=2U AS=1.3P AD=0.84P PS=5.3U
+ PD=2.84U
M$193 \$107 \$276 AVDD AVDD pfet_03v3 L=2U W=2U AS=0.84P AD=0.84P PS=2.84U
+ PD=2.84U
M$194 AVDD \$276 \$107 AVDD pfet_03v3 L=2U W=2U AS=0.84P AD=0.84P PS=2.84U
+ PD=2.84U
M$195 \$107 \$276 AVDD AVDD pfet_03v3 L=2U W=2U AS=0.84P AD=1.3P PS=2.84U
+ PD=5.3U
M$196 AVDD AVDD AVDD AVDD pfet_03v3 L=2U W=2U AS=1.3P AD=1.3P PS=5.3U PD=5.3U
M$197 AVDD AVDD AVDD AVDD pfet_03v3 L=2U W=1.2U AS=0.78P AD=0.78P PS=3.7U
+ PD=3.7U
M$198 AVDD AVDD AVDD AVDD pfet_03v3 L=2U W=1.2U AS=0.78P AD=0.504P PS=3.7U
+ PD=2.04U
M$199 AVDD AVDD AVDD AVDD pfet_03v3 L=2U W=1.2U AS=0.504P AD=0.504P PS=2.04U
+ PD=2.04U
M$200 AVDD AVDD AVDD AVDD pfet_03v3 L=2U W=1.2U AS=0.504P AD=0.78P PS=2.04U
+ PD=3.7U
M$201 AVDD AVDD AVDD AVDD pfet_03v3 L=2U W=1.2U AS=0.78P AD=0.78P PS=3.7U
+ PD=3.7U
M$202 AVDD AVDD AVDD AVDD pfet_03v3 L=2U W=1.2U AS=0.78P AD=0.78P PS=3.7U
+ PD=3.7U
M$203 AVDD AVDD AVDD AVDD pfet_03v3 L=2U W=2U AS=1.3P AD=1.3P PS=5.3U PD=5.3U
M$204 AVDD \$275 \$141 AVDD pfet_03v3 L=2U W=2U AS=1.3P AD=0.84P PS=5.3U
+ PD=2.84U
M$205 \$141 \$275 AVDD AVDD pfet_03v3 L=2U W=2U AS=0.84P AD=0.84P PS=2.84U
+ PD=2.84U
M$206 AVDD \$275 \$141 AVDD pfet_03v3 L=2U W=2U AS=0.84P AD=0.84P PS=2.84U
+ PD=2.84U
M$207 \$141 \$275 AVDD AVDD pfet_03v3 L=2U W=2U AS=0.84P AD=1.3P PS=2.84U
+ PD=5.3U
M$208 AVDD \$275 \$106 AVDD pfet_03v3 L=2U W=2U AS=1.3P AD=0.84P PS=5.3U
+ PD=2.84U
M$209 \$106 \$275 AVDD AVDD pfet_03v3 L=2U W=2U AS=0.84P AD=0.84P PS=2.84U
+ PD=2.84U
M$210 AVDD \$275 \$106 AVDD pfet_03v3 L=2U W=2U AS=0.84P AD=1.3P PS=2.84U
+ PD=5.3U
M$211 AVDD \$275 \$141 AVDD pfet_03v3 L=2U W=2U AS=1.3P AD=0.84P PS=5.3U
+ PD=2.84U
M$212 \$141 \$275 AVDD AVDD pfet_03v3 L=2U W=2U AS=0.84P AD=0.84P PS=2.84U
+ PD=2.84U
M$213 AVDD \$275 \$141 AVDD pfet_03v3 L=2U W=2U AS=0.84P AD=0.84P PS=2.84U
+ PD=2.84U
M$214 \$141 \$275 AVDD AVDD pfet_03v3 L=2U W=2U AS=0.84P AD=1.3P PS=2.84U
+ PD=5.3U
M$215 AVDD AVDD AVDD AVDD pfet_03v3 L=2U W=2U AS=1.3P AD=1.3P PS=5.3U PD=5.3U
M$216 AVDD AVDD AVDD AVDD pfet_03v3 L=2U W=2U AS=1.3P AD=1.3P PS=5.3U PD=5.3U
M$217 AVDD \$276 \$142 AVDD pfet_03v3 L=2U W=2U AS=1.3P AD=0.84P PS=5.3U
+ PD=2.84U
M$218 \$142 \$276 AVDD AVDD pfet_03v3 L=2U W=2U AS=0.84P AD=0.84P PS=2.84U
+ PD=2.84U
M$219 AVDD \$276 \$142 AVDD pfet_03v3 L=2U W=2U AS=0.84P AD=0.84P PS=2.84U
+ PD=2.84U
M$220 \$142 \$276 AVDD AVDD pfet_03v3 L=2U W=2U AS=0.84P AD=1.3P PS=2.84U
+ PD=5.3U
M$221 AVDD \$276 \$107 AVDD pfet_03v3 L=2U W=2U AS=1.3P AD=0.84P PS=5.3U
+ PD=2.84U
M$222 \$107 \$276 AVDD AVDD pfet_03v3 L=2U W=2U AS=0.84P AD=0.84P PS=2.84U
+ PD=2.84U
M$223 AVDD \$276 \$107 AVDD pfet_03v3 L=2U W=2U AS=0.84P AD=1.3P PS=2.84U
+ PD=5.3U
M$224 AVDD \$276 \$142 AVDD pfet_03v3 L=2U W=2U AS=1.3P AD=0.84P PS=5.3U
+ PD=2.84U
M$225 \$142 \$276 AVDD AVDD pfet_03v3 L=2U W=2U AS=0.84P AD=0.84P PS=2.84U
+ PD=2.84U
M$226 AVDD \$276 \$142 AVDD pfet_03v3 L=2U W=2U AS=0.84P AD=0.84P PS=2.84U
+ PD=2.84U
M$227 \$142 \$276 AVDD AVDD pfet_03v3 L=2U W=2U AS=0.84P AD=1.3P PS=2.84U
+ PD=5.3U
M$228 AVDD AVDD AVDD AVDD pfet_03v3 L=2U W=2U AS=1.3P AD=1.3P PS=5.3U PD=5.3U
M$229 AVDD AVDD AVDD AVDD pfet_03v3 L=2U W=2U AS=1.3P AD=1.3P PS=5.3U PD=5.3U
M$230 AVDD \$275 \$275 AVDD pfet_03v3 L=2U W=2U AS=1.3P AD=0.84P PS=5.3U
+ PD=2.84U
M$231 \$275 \$275 AVDD AVDD pfet_03v3 L=2U W=2U AS=0.84P AD=0.84P PS=2.84U
+ PD=2.84U
M$232 AVDD \$275 \$275 AVDD pfet_03v3 L=2U W=2U AS=0.84P AD=0.84P PS=2.84U
+ PD=2.84U
M$233 \$275 \$275 AVDD AVDD pfet_03v3 L=2U W=2U AS=0.84P AD=1.3P PS=2.84U
+ PD=5.3U
M$234 \$141 \$275 AVDD AVDD pfet_03v3 L=2U W=2U AS=1.3P AD=0.84P PS=5.3U
+ PD=2.84U
M$235 AVDD \$275 \$141 AVDD pfet_03v3 L=2U W=2U AS=0.84P AD=0.84P PS=2.84U
+ PD=2.84U
M$236 \$141 \$275 AVDD AVDD pfet_03v3 L=2U W=2U AS=0.84P AD=1.3P PS=2.84U
+ PD=5.3U
M$237 AVDD \$275 \$275 AVDD pfet_03v3 L=2U W=2U AS=1.3P AD=0.84P PS=5.3U
+ PD=2.84U
M$238 \$275 \$275 AVDD AVDD pfet_03v3 L=2U W=2U AS=0.84P AD=0.84P PS=2.84U
+ PD=2.84U
M$239 AVDD \$275 \$275 AVDD pfet_03v3 L=2U W=2U AS=0.84P AD=0.84P PS=2.84U
+ PD=2.84U
M$240 \$275 \$275 AVDD AVDD pfet_03v3 L=2U W=2U AS=0.84P AD=1.3P PS=2.84U
+ PD=5.3U
M$241 AVDD AVDD AVDD AVDD pfet_03v3 L=2U W=2U AS=1.3P AD=1.3P PS=5.3U PD=5.3U
M$242 AVDD AVDD AVDD AVDD pfet_03v3 L=2U W=2U AS=1.3P AD=1.3P PS=5.3U PD=5.3U
M$243 AVDD \$276 \$276 AVDD pfet_03v3 L=2U W=2U AS=1.3P AD=0.84P PS=5.3U
+ PD=2.84U
M$244 \$276 \$276 AVDD AVDD pfet_03v3 L=2U W=2U AS=0.84P AD=0.84P PS=2.84U
+ PD=2.84U
M$245 AVDD \$276 \$276 AVDD pfet_03v3 L=2U W=2U AS=0.84P AD=0.84P PS=2.84U
+ PD=2.84U
M$246 \$276 \$276 AVDD AVDD pfet_03v3 L=2U W=2U AS=0.84P AD=1.3P PS=2.84U
+ PD=5.3U
M$247 \$142 \$276 AVDD AVDD pfet_03v3 L=2U W=2U AS=1.3P AD=0.84P PS=5.3U
+ PD=2.84U
M$248 AVDD \$276 \$142 AVDD pfet_03v3 L=2U W=2U AS=0.84P AD=0.84P PS=2.84U
+ PD=2.84U
M$249 \$142 \$276 AVDD AVDD pfet_03v3 L=2U W=2U AS=0.84P AD=1.3P PS=2.84U
+ PD=5.3U
M$250 AVDD \$276 \$276 AVDD pfet_03v3 L=2U W=2U AS=1.3P AD=0.84P PS=5.3U
+ PD=2.84U
M$251 \$276 \$276 AVDD AVDD pfet_03v3 L=2U W=2U AS=0.84P AD=0.84P PS=2.84U
+ PD=2.84U
M$252 AVDD \$276 \$276 AVDD pfet_03v3 L=2U W=2U AS=0.84P AD=0.84P PS=2.84U
+ PD=2.84U
M$253 \$276 \$276 AVDD AVDD pfet_03v3 L=2U W=2U AS=0.84P AD=1.3P PS=2.84U
+ PD=5.3U
M$254 AVDD AVDD AVDD AVDD pfet_03v3 L=2U W=2U AS=1.3P AD=1.3P PS=5.3U PD=5.3U
M$255 AVDD AVDD AVDD AVDD pfet_03v3 L=2U W=2U AS=1.3P AD=1.3P PS=5.3U PD=5.3U
M$256 AVDD AVDD AVDD AVDD pfet_03v3 L=2U W=2U AS=1.3P AD=0.84P PS=5.3U PD=2.84U
M$257 AVDD AVDD AVDD AVDD pfet_03v3 L=2U W=2U AS=0.84P AD=0.84P PS=2.84U
+ PD=2.84U
M$258 AVDD AVDD AVDD AVDD pfet_03v3 L=2U W=2U AS=0.84P AD=0.84P PS=2.84U
+ PD=2.84U
M$259 AVDD AVDD AVDD AVDD pfet_03v3 L=2U W=2U AS=0.84P AD=1.3P PS=2.84U PD=5.3U
M$260 AVDD AVDD AVDD AVDD pfet_03v3 L=2U W=2U AS=1.3P AD=0.84P PS=5.3U PD=2.84U
M$261 AVDD AVDD AVDD AVDD pfet_03v3 L=2U W=2U AS=0.84P AD=0.84P PS=2.84U
+ PD=2.84U
M$262 AVDD AVDD AVDD AVDD pfet_03v3 L=2U W=2U AS=0.84P AD=1.3P PS=2.84U PD=5.3U
M$263 AVDD AVDD AVDD AVDD pfet_03v3 L=2U W=2U AS=1.3P AD=0.84P PS=5.3U PD=2.84U
M$264 AVDD AVDD AVDD AVDD pfet_03v3 L=2U W=2U AS=0.84P AD=0.84P PS=2.84U
+ PD=2.84U
M$265 AVDD AVDD AVDD AVDD pfet_03v3 L=2U W=2U AS=0.84P AD=0.84P PS=2.84U
+ PD=2.84U
M$266 AVDD AVDD AVDD AVDD pfet_03v3 L=2U W=2U AS=0.84P AD=1.3P PS=2.84U PD=5.3U
M$267 AVDD AVDD AVDD AVDD pfet_03v3 L=2U W=2U AS=1.3P AD=1.3P PS=5.3U PD=5.3U
M$268 AVDD AVDD AVDD AVDD pfet_03v3 L=2U W=2U AS=1.3P AD=1.3P PS=5.3U PD=5.3U
M$269 AVDD AVDD AVDD AVDD pfet_03v3 L=2U W=2U AS=1.3P AD=0.84P PS=5.3U PD=2.84U
M$270 AVDD AVDD AVDD AVDD pfet_03v3 L=2U W=2U AS=0.84P AD=0.84P PS=2.84U
+ PD=2.84U
M$271 AVDD AVDD AVDD AVDD pfet_03v3 L=2U W=2U AS=0.84P AD=0.84P PS=2.84U
+ PD=2.84U
M$272 AVDD AVDD AVDD AVDD pfet_03v3 L=2U W=2U AS=0.84P AD=1.3P PS=2.84U PD=5.3U
M$273 AVDD AVDD AVDD AVDD pfet_03v3 L=2U W=2U AS=1.3P AD=0.84P PS=5.3U PD=2.84U
M$274 AVDD AVDD AVDD AVDD pfet_03v3 L=2U W=2U AS=0.84P AD=0.84P PS=2.84U
+ PD=2.84U
M$275 AVDD AVDD AVDD AVDD pfet_03v3 L=2U W=2U AS=0.84P AD=1.3P PS=2.84U PD=5.3U
M$276 AVDD AVDD AVDD AVDD pfet_03v3 L=2U W=2U AS=1.3P AD=0.84P PS=5.3U PD=2.84U
M$277 AVDD AVDD AVDD AVDD pfet_03v3 L=2U W=2U AS=0.84P AD=0.84P PS=2.84U
+ PD=2.84U
M$278 AVDD AVDD AVDD AVDD pfet_03v3 L=2U W=2U AS=0.84P AD=0.84P PS=2.84U
+ PD=2.84U
M$279 AVDD AVDD AVDD AVDD pfet_03v3 L=2U W=2U AS=0.84P AD=1.3P PS=2.84U PD=5.3U
M$280 AVDD AVDD AVDD AVDD pfet_03v3 L=2U W=2U AS=1.3P AD=1.3P PS=5.3U PD=5.3U
M$281 AVDD AVDD AVDD AVDD pfet_03v3 L=2U W=2U AS=1.3P AD=1.3P PS=5.3U PD=5.3U
M$282 AVDD AVDD AVDD AVDD pfet_03v3 L=2U W=2U AS=1.3P AD=0.84P PS=5.3U PD=2.84U
M$283 AVDD AVDD AVDD AVDD pfet_03v3 L=2U W=2U AS=0.84P AD=0.84P PS=2.84U
+ PD=2.84U
M$284 AVDD AVDD AVDD AVDD pfet_03v3 L=2U W=2U AS=0.84P AD=0.84P PS=2.84U
+ PD=2.84U
M$285 AVDD AVDD AVDD AVDD pfet_03v3 L=2U W=2U AS=0.84P AD=1.3P PS=2.84U PD=5.3U
M$286 AVDD AVDD AVDD AVDD pfet_03v3 L=2U W=2U AS=1.3P AD=0.84P PS=5.3U PD=2.84U
M$287 AVDD AVDD AVDD AVDD pfet_03v3 L=2U W=2U AS=0.84P AD=0.84P PS=2.84U
+ PD=2.84U
M$288 AVDD AVDD AVDD AVDD pfet_03v3 L=2U W=2U AS=0.84P AD=1.3P PS=2.84U PD=5.3U
M$289 AVDD AVDD AVDD AVDD pfet_03v3 L=2U W=2U AS=1.3P AD=0.84P PS=5.3U PD=2.84U
M$290 AVDD AVDD AVDD AVDD pfet_03v3 L=2U W=2U AS=0.84P AD=0.84P PS=2.84U
+ PD=2.84U
M$291 AVDD AVDD AVDD AVDD pfet_03v3 L=2U W=2U AS=0.84P AD=0.84P PS=2.84U
+ PD=2.84U
M$292 AVDD AVDD AVDD AVDD pfet_03v3 L=2U W=2U AS=0.84P AD=1.3P PS=2.84U PD=5.3U
M$293 AVDD AVDD AVDD AVDD pfet_03v3 L=2U W=2U AS=1.3P AD=1.3P PS=5.3U PD=5.3U
M$294 AVDD AVDD AVDD AVDD pfet_03v3 L=2U W=2U AS=1.3P AD=1.3P PS=5.3U PD=5.3U
M$295 AVDD AVDD AVDD AVDD pfet_03v3 L=2U W=2U AS=1.3P AD=0.84P PS=5.3U PD=2.84U
M$296 AVDD AVDD AVDD AVDD pfet_03v3 L=2U W=2U AS=0.84P AD=0.84P PS=2.84U
+ PD=2.84U
M$297 AVDD AVDD AVDD AVDD pfet_03v3 L=2U W=2U AS=0.84P AD=0.84P PS=2.84U
+ PD=2.84U
M$298 AVDD AVDD AVDD AVDD pfet_03v3 L=2U W=2U AS=0.84P AD=1.3P PS=2.84U PD=5.3U
M$299 AVDD AVDD AVDD AVDD pfet_03v3 L=2U W=2U AS=1.3P AD=0.84P PS=5.3U PD=2.84U
M$300 AVDD AVDD AVDD AVDD pfet_03v3 L=2U W=2U AS=0.84P AD=0.84P PS=2.84U
+ PD=2.84U
M$301 AVDD AVDD AVDD AVDD pfet_03v3 L=2U W=2U AS=0.84P AD=1.3P PS=2.84U PD=5.3U
M$302 AVDD AVDD AVDD AVDD pfet_03v3 L=2U W=2U AS=1.3P AD=0.84P PS=5.3U PD=2.84U
M$303 AVDD AVDD AVDD AVDD pfet_03v3 L=2U W=2U AS=0.84P AD=0.84P PS=2.84U
+ PD=2.84U
M$304 AVDD AVDD AVDD AVDD pfet_03v3 L=2U W=2U AS=0.84P AD=0.84P PS=2.84U
+ PD=2.84U
M$305 AVDD AVDD AVDD AVDD pfet_03v3 L=2U W=2U AS=0.84P AD=1.3P PS=2.84U PD=5.3U
M$306 AVDD AVDD AVDD AVDD pfet_03v3 L=2U W=2U AS=1.3P AD=1.3P PS=5.3U PD=5.3U
M$307 AVDD AVDD AVDD AVDD pfet_03v3 L=2U W=2U AS=1.3P AD=1.3P PS=5.3U PD=5.3U
M$308 AVDD AVDD AVDD AVDD pfet_03v3 L=2U W=2U AS=1.3P AD=0.84P PS=5.3U PD=2.84U
M$309 AVDD AVDD AVDD AVDD pfet_03v3 L=2U W=2U AS=0.84P AD=0.84P PS=2.84U
+ PD=2.84U
M$310 AVDD AVDD AVDD AVDD pfet_03v3 L=2U W=2U AS=0.84P AD=0.84P PS=2.84U
+ PD=2.84U
M$311 AVDD AVDD AVDD AVDD pfet_03v3 L=2U W=2U AS=0.84P AD=1.3P PS=2.84U PD=5.3U
M$312 AVDD AVDD AVDD AVDD pfet_03v3 L=2U W=2U AS=1.3P AD=0.84P PS=5.3U PD=2.84U
M$313 AVDD AVDD AVDD AVDD pfet_03v3 L=2U W=2U AS=0.84P AD=0.84P PS=2.84U
+ PD=2.84U
M$314 AVDD AVDD AVDD AVDD pfet_03v3 L=2U W=2U AS=0.84P AD=1.3P PS=2.84U PD=5.3U
M$315 AVDD AVDD AVDD AVDD pfet_03v3 L=2U W=2U AS=1.3P AD=0.84P PS=5.3U PD=2.84U
M$316 AVDD AVDD AVDD AVDD pfet_03v3 L=2U W=2U AS=0.84P AD=0.84P PS=2.84U
+ PD=2.84U
M$317 AVDD AVDD AVDD AVDD pfet_03v3 L=2U W=2U AS=0.84P AD=0.84P PS=2.84U
+ PD=2.84U
M$318 AVDD AVDD AVDD AVDD pfet_03v3 L=2U W=2U AS=0.84P AD=1.3P PS=2.84U PD=5.3U
M$319 AVDD AVDD AVDD AVDD pfet_03v3 L=2U W=2U AS=1.3P AD=1.3P PS=5.3U PD=5.3U
M$320 AVDD AVDD AVDD AVDD pfet_03v3 L=2U W=2U AS=1.3P AD=1.3P PS=5.3U PD=5.3U
M$321 AVDD AVDD AVDD AVDD pfet_03v3 L=2U W=2U AS=1.3P AD=0.84P PS=5.3U PD=2.84U
M$322 AVDD AVDD AVDD AVDD pfet_03v3 L=2U W=2U AS=0.84P AD=0.84P PS=2.84U
+ PD=2.84U
M$323 AVDD AVDD AVDD AVDD pfet_03v3 L=2U W=2U AS=0.84P AD=0.84P PS=2.84U
+ PD=2.84U
M$324 AVDD AVDD AVDD AVDD pfet_03v3 L=2U W=2U AS=0.84P AD=1.3P PS=2.84U PD=5.3U
M$325 AVDD AVDD AVDD AVDD pfet_03v3 L=2U W=2U AS=1.3P AD=0.84P PS=5.3U PD=2.84U
M$326 AVDD AVDD AVDD AVDD pfet_03v3 L=2U W=2U AS=0.84P AD=0.84P PS=2.84U
+ PD=2.84U
M$327 AVDD AVDD AVDD AVDD pfet_03v3 L=2U W=2U AS=0.84P AD=1.3P PS=2.84U PD=5.3U
M$328 AVDD AVDD AVDD AVDD pfet_03v3 L=2U W=2U AS=1.3P AD=0.84P PS=5.3U PD=2.84U
M$329 AVDD AVDD AVDD AVDD pfet_03v3 L=2U W=2U AS=0.84P AD=0.84P PS=2.84U
+ PD=2.84U
M$330 AVDD AVDD AVDD AVDD pfet_03v3 L=2U W=2U AS=0.84P AD=0.84P PS=2.84U
+ PD=2.84U
M$331 AVDD AVDD AVDD AVDD pfet_03v3 L=2U W=2U AS=0.84P AD=1.3P PS=2.84U PD=5.3U
M$332 AVDD AVDD AVDD AVDD pfet_03v3 L=2U W=2U AS=1.3P AD=1.3P PS=5.3U PD=5.3U
M$333 AVDD AVDD AVDD AVDD pfet_03v3 L=2U W=2U AS=1.3P AD=1.3P PS=5.3U PD=5.3U
M$334 AVDD AVDD AVDD AVDD pfet_03v3 L=2U W=2U AS=1.3P AD=0.84P PS=5.3U PD=2.84U
M$335 AVDD AVDD AVDD AVDD pfet_03v3 L=2U W=2U AS=0.84P AD=0.84P PS=2.84U
+ PD=2.84U
M$336 AVDD AVDD AVDD AVDD pfet_03v3 L=2U W=2U AS=0.84P AD=0.84P PS=2.84U
+ PD=2.84U
M$337 AVDD AVDD AVDD AVDD pfet_03v3 L=2U W=2U AS=0.84P AD=1.3P PS=2.84U PD=5.3U
M$338 AVDD AVDD AVDD AVDD pfet_03v3 L=2U W=2U AS=1.3P AD=0.84P PS=5.3U PD=2.84U
M$339 AVDD AVDD AVDD AVDD pfet_03v3 L=2U W=2U AS=0.84P AD=0.84P PS=2.84U
+ PD=2.84U
M$340 AVDD AVDD AVDD AVDD pfet_03v3 L=2U W=2U AS=0.84P AD=1.3P PS=2.84U PD=5.3U
M$341 AVDD AVDD AVDD AVDD pfet_03v3 L=2U W=2U AS=1.3P AD=0.84P PS=5.3U PD=2.84U
M$342 AVDD AVDD AVDD AVDD pfet_03v3 L=2U W=2U AS=0.84P AD=0.84P PS=2.84U
+ PD=2.84U
M$343 AVDD AVDD AVDD AVDD pfet_03v3 L=2U W=2U AS=0.84P AD=0.84P PS=2.84U
+ PD=2.84U
M$344 AVDD AVDD AVDD AVDD pfet_03v3 L=2U W=2U AS=0.84P AD=1.3P PS=2.84U PD=5.3U
M$345 AVDD AVDD AVDD AVDD pfet_03v3 L=2U W=2U AS=1.3P AD=1.3P PS=5.3U PD=5.3U
M$346 AVDD AVDD AVDD AVDD pfet_03v3 L=2U W=2U AS=1.3P AD=1.3P PS=5.3U PD=5.3U
M$347 AVDD AVDD AVDD AVDD pfet_03v3 L=2U W=2U AS=1.3P AD=0.84P PS=5.3U PD=2.84U
M$348 AVDD AVDD AVDD AVDD pfet_03v3 L=2U W=2U AS=0.84P AD=0.84P PS=2.84U
+ PD=2.84U
M$349 AVDD AVDD AVDD AVDD pfet_03v3 L=2U W=2U AS=0.84P AD=0.84P PS=2.84U
+ PD=2.84U
M$350 AVDD AVDD AVDD AVDD pfet_03v3 L=2U W=2U AS=0.84P AD=1.3P PS=2.84U PD=5.3U
M$351 AVDD AVDD AVDD AVDD pfet_03v3 L=2U W=2U AS=1.3P AD=0.84P PS=5.3U PD=2.84U
M$352 AVDD AVDD AVDD AVDD pfet_03v3 L=2U W=2U AS=0.84P AD=0.84P PS=2.84U
+ PD=2.84U
M$353 AVDD AVDD AVDD AVDD pfet_03v3 L=2U W=2U AS=0.84P AD=1.3P PS=2.84U PD=5.3U
M$354 AVDD AVDD AVDD AVDD pfet_03v3 L=2U W=2U AS=1.3P AD=0.84P PS=5.3U PD=2.84U
M$355 AVDD AVDD AVDD AVDD pfet_03v3 L=2U W=2U AS=0.84P AD=0.84P PS=2.84U
+ PD=2.84U
M$356 AVDD AVDD AVDD AVDD pfet_03v3 L=2U W=2U AS=0.84P AD=0.84P PS=2.84U
+ PD=2.84U
M$357 AVDD AVDD AVDD AVDD pfet_03v3 L=2U W=2U AS=0.84P AD=1.3P PS=2.84U PD=5.3U
M$358 AVDD AVDD AVDD AVDD pfet_03v3 L=2U W=2U AS=1.3P AD=1.3P PS=5.3U PD=5.3U
M$359 AVDD AVDD AVDD AVDD pfet_03v3 L=2U W=2U AS=1.3P AD=1.3P PS=5.3U PD=5.3U
M$360 AVDD AVDD AVDD AVDD pfet_03v3 L=2U W=2U AS=1.3P AD=0.84P PS=5.3U PD=2.84U
M$361 AVDD AVDD AVDD AVDD pfet_03v3 L=2U W=2U AS=0.84P AD=0.84P PS=2.84U
+ PD=2.84U