* NGSPICE file created from track_Dyn.ext - technology: gf180mcuD

.subckt track_Dyn VDDD VSSA clks Vinp Vinn Vcom CK1 A B C vocp VDP VDN
X0 a_5606_8100# a_n38_7194.t4 a_5084_8604# VSSA.t40 nfet_03v3 ad=0.9516p pd=4.34u as=0.9516p ps=4.34u w=1.56u l=2u
X1 a_8996_1940.t2 a_6516_0.t1 cap_mim_2f0_m4m5_noshield c_width=10u c_length=10u
X2 a_7670_372.t1 clks.t0 VSSA.t39 VSSA.t38 nfet_03v3 ad=0.9516p pd=4.34u as=0.9516p ps=4.34u w=1.56u l=0.28u
X3 VSSA.t56 a_7670_372.t2 a_9294_0# VSSA.t55 nfet_03v3 ad=0.9516p pd=4.34u as=0.9516p ps=4.34u w=1.56u l=0.28u
X4 a_12857_8367.t7 VDP.t10 a_13035_8367.t14 VSSA.t23 nfet_03v3 ad=1.891p pd=7.42u as=1.891p ps=7.42u w=3.1u l=0.28u
X5 VSSA.t60 Valid.t3 a_n38_7194.t3 VSSA.t59 nfet_03v3 ad=0.9516p pd=4.34u as=0.9516p ps=4.34u w=1.56u l=0.28u
X6 Vinn.t5 a_13020_1940.t2 VDN.t0 VSSA.t43 nfet_03v3 ad=3.66p pd=13.219999u as=3.66p ps=13.219999u w=6u l=0.28u
X7 a_16649_10286.t6 a_12857_9469.t8 a_16649_9112.t5 VDDD.t30 pfet_03v3 ad=2.535p pd=9.1u as=2.535p ps=9.1u w=3.9u l=0.28u
X8 VDDA.t5 a_550_1260.t2 a_8996_1940.t0 w_8692_1762# pfet_03v3 ad=2.6p pd=9.3u as=2.6p ps=9.3u w=4u l=0.28u
X9 a_13035_8367.t6 VDN.t10 a_12857_9469.t7 VSSA.t47 nfet_03v3 ad=1.891p pd=7.42u as=1.891p ps=7.42u w=3.1u l=0.28u
X10 a_14322_0.t0 a_6576_1898# a_13140_1804# VSSA.t9 nfet_03v3 ad=0.9516p pd=4.34u as=0.9516p ps=4.34u w=1.56u l=0.28u
X11 VDP.t9 VSSA.t80 Vcom.t4 VSSA.t81 nfet_03v3 ad=3.66p pd=13.219999u as=3.66p ps=13.219999u w=6u l=0.28u
X12 a_16769_10150.t5 a_12857_8367.t8 a_18596_10286.t7 VDDD.t12 pfet_03v3 ad=2.535p pd=9.1u as=2.535p ps=9.1u w=3.9u l=0.28u
X13 a_16649_10286.t1 a_16769_10150.t6 VDDD.t29 VDDD.t28 pfet_03v3 ad=2.535p pd=9.1u as=2.535p ps=9.1u w=3.9u l=0.28u
X14 a_8996_1940.t2 a_6516_0.t2 cap_mim_2f0_m4m5_noshield c_width=10u c_length=10u
X15 Vcom.t9 VSSA.t78 VDN.t7 VSSA.t79 nfet_03v3 ad=3.66p pd=13.219999u as=3.66p ps=13.219999u w=6u l=0.28u
X16 Vcom.t8 VSSA.t76 VDN.t6 VSSA.t77 nfet_03v3 ad=3.66p pd=13.219999u as=3.66p ps=13.219999u w=6u l=0.28u
X17 a_4586_8100# a_n38_7194.t5 VSSA.t90 VSSA.t85 nfet_03v3 ad=0.9516p pd=4.34u as=0.9516p ps=4.34u w=1.56u l=2u
X18 a_13206_1940.t1 a_13140_1804# a_13020_1940.t1 w_12932_1762# pfet_03v3 ad=2.6p pd=9.3u as=2.6p ps=9.3u w=4u l=0.28u
X19 a_13035_8367.t13 VDP.t11 a_12857_8367.t6 VSSA.t24 nfet_03v3 ad=1.891p pd=7.42u as=1.891p ps=7.42u w=3.1u l=0.28u
X20 a_7670_372.t0 clks.t1 VDDA.t7 VDDA.t6 pfet_03v3 ad=2.535p pd=9.1u as=2.535p ps=9.1u w=3.9u l=0.28u
X21 a_12857_9469.t6 VDN.t11 a_13035_8367.t7 VSSA.t22 nfet_03v3 ad=1.891p pd=7.42u as=1.891p ps=7.42u w=3.1u l=0.28u
X22 a_8957_7092# a_n38_7194.t6 a_1835_7596# VSSA.t87 nfet_03v3 ad=0.9516p pd=4.34u as=0.9516p ps=4.34u w=1.56u l=35u
X23 a_5606_8100# a_n38_7194.t7 VSSA.t89 VSSA.t85 nfet_03v3 ad=0.9516p pd=4.34u as=0.9516p ps=4.34u w=1.56u l=2u
X24 a_18596_10286.t3 a_16649_9112.t6 VDDD.t13 VDDD.t12 pfet_03v3 ad=2.535p pd=9.1u as=2.535p ps=9.1u w=3.9u l=0.28u
X25 a_9294_0# VDDA.t10 a_550_1260.t0 VSSA.t48 nfet_03v3 ad=0.9516p pd=4.34u as=0.9516p ps=4.34u w=1.56u l=0.28u
X26 a_n38_8454# clks.t2 VDDD.t15 VDDD.t14 pfet_03v3 ad=2.535p pd=9.1u as=2.535p ps=9.1u w=3.9u l=0.28u
X27 a_13206_1940.t2 a_14322_0.t5 cap_mim_2f0_m4m5_noshield c_width=10u c_length=10u
X28 VDP.t4 a_550_1260.t3 Vinp.t4 VSSA.t37 nfet_03v3 ad=3.66p pd=13.219999u as=3.66p ps=13.219999u w=6u l=0.28u
X29 Vcom.t7 VSSA.t74 VDN.t5 VSSA.t75 nfet_03v3 ad=3.66p pd=13.219999u as=3.66p ps=13.219999u w=6u l=0.28u
X30 a_22488_7905# vocp.t2 VSSA.t26 VSSA.t25 nfet_03v3 ad=0.9516p pd=4.34u as=0.9516p ps=4.34u w=1.56u l=0.28u
X31 Vcom.t6 VSSA.t72 VDN.t9 VSSA.t73 nfet_03v3 ad=3.66p pd=13.219999u as=3.66p ps=13.219999u w=6u l=0.28u
X32 VDDD.t31 a_16769_10150.t7 a_16649_10286.t2 VDDD.t30 pfet_03v3 ad=2.535p pd=9.1u as=2.535p ps=9.1u w=3.9u l=0.28u
X33 VSSA.t30 a_7670_372.t3 a_6516_0.t3 VSSA.t29 nfet_03v3 ad=0.9516p pd=4.34u as=0.9516p ps=4.34u w=1.56u l=0.28u
X34 a_14322_0.t2 a_13020_1940.t3 a_13140_1804# VSSA.t44 nfet_03v3 ad=0.9516p pd=4.34u as=0.9516p ps=4.34u w=1.56u l=0.28u
X35 a_20974_8213.t1 a_16649_9112.t7 VDDD.t11 VDDD.t10 pfet_03v3 ad=2.535p pd=9.1u as=2.535p ps=9.1u w=3.9u l=0.28u
X36 a_16649_10286.t5 a_12857_9469.t9 a_16649_9112.t4 VDDD.t16 pfet_03v3 ad=2.535p pd=9.1u as=2.535p ps=9.1u w=3.9u l=0.28u
X37 Vinn.t4 a_13020_1940.t4 VDN.t3 VSSA.t82 nfet_03v3 ad=3.66p pd=13.219999u as=3.66p ps=13.219999u w=6u l=0.28u
X38 Vinn.t3 a_13020_1940.t5 VDN.t2 VSSA.t83 nfet_03v3 ad=3.66p pd=13.219999u as=3.66p ps=13.219999u w=6u l=0.28u
X39 VDP.t2 a_550_1260.t4 Vinp.t3 VSSA.t34 nfet_03v3 ad=3.66p pd=13.219999u as=3.66p ps=13.219999u w=6u l=0.28u
X40 Valid.t1 a_20974_8213.t2 a_22488_7905# VSSA.t61 nfet_03v3 ad=0.9516p pd=4.34u as=0.9516p ps=4.34u w=1.56u l=0.28u
X41 a_15986_8213# a_6598_8268.t2 VDDD.t3 VDDD.t2 pfet_03v3 ad=2.535p pd=9.1u as=2.535p ps=9.1u w=3.9u l=0.28u
X42 a_13035_8367.t0 a_6598_8268.t3 VSSA.t11 VSSA.t10 nfet_03v3 ad=1.891p pd=7.42u as=1.891p ps=7.42u w=3.1u l=0.28u
X43 a_n38_7194.t2 Valid.t4 a_578_8454# VDDD.t38 pfet_03v3 ad=2.535p pd=9.1u as=2.535p ps=9.1u w=3.9u l=0.28u
X44 a_14322_0.t1 a_13020_1940.t6 Vinn.t0 VSSA.t84 nfet_03v3 ad=0.9516p pd=4.34u as=0.9516p ps=4.34u w=1.56u l=0.28u
X45 a_8996_1940.t2 a_6516_0.t1 cap_mim_2f0_m4m5_noshield c_width=10u c_length=10u
X46 VSSA.t7 CK1.t0 a_n38_7194.t0 VSSA.t6 nfet_03v3 ad=0.9516p pd=4.34u as=0.9516p ps=4.34u w=1.56u l=0.28u
X47 a_16649_9112.t2 a_12857_9469.t10 a_16649_10286.t4 VDDD.t28 pfet_03v3 ad=2.535p pd=9.1u as=2.535p ps=9.1u w=3.9u l=0.28u
X48 a_12857_9469.t5 VDN.t12 a_13035_8367.t8 VSSA.t23 nfet_03v3 ad=1.891p pd=7.42u as=1.891p ps=7.42u w=3.1u l=0.28u
X49 a_18596_10286.t6 a_12857_8367.t9 a_16769_10150.t4 VDDD.t6 pfet_03v3 ad=2.535p pd=9.1u as=2.535p ps=9.1u w=3.9u l=0.28u
X50 a_8957_7092# a_n38_7194.t6 VSSA.t88 VSSA.t87 nfet_03v3 ad=0.9516p pd=4.34u as=0.9516p ps=4.34u w=1.56u l=35u
X51 a_18596_10286.t5 a_12857_8367.t10 a_16769_10150.t3 VDDD.t4 pfet_03v3 ad=2.535p pd=9.1u as=2.535p ps=9.1u w=3.9u l=0.28u
X52 a_13206_1940.t0 a_13020_1940.t7 VDDA.t4 w_12932_1762# pfet_03v3 ad=2.6p pd=9.3u as=2.6p ps=9.3u w=4u l=0.28u
X53 Vinp.t5 a_550_1260.t5 a_6516_0.t5 VSSA.t35 nfet_03v3 ad=0.9516p pd=4.34u as=0.9516p ps=4.34u w=1.56u l=0.28u
X54 a_20974_8213.t0 a_16649_9112.t8 VSSA.t53 VSSA.t52 nfet_03v3 ad=0.9516p pd=4.34u as=0.9516p ps=4.34u w=1.56u l=0.28u
X55 vocp.t1 a_16769_10150.t8 VDDD.t40 VDDD.t39 pfet_03v3 ad=2.535p pd=9.1u as=2.535p ps=9.1u w=3.9u l=0.28u
X56 a_15986_8213# a_6598_8268.t4 VSSA.t13 VSSA.t12 nfet_03v3 ad=0.9516p pd=4.34u as=0.9516p ps=4.34u w=1.56u l=0.28u
X57 Vinn.t2 a_13020_1940.t8 VDN.t1 VSSA.t45 nfet_03v3 ad=3.66p pd=13.219999u as=3.66p ps=13.219999u w=6u l=0.28u
X58 VDP.t3 a_550_1260.t6 Vinp.t2 VSSA.t36 nfet_03v3 ad=3.66p pd=13.219999u as=3.66p ps=13.219999u w=6u l=0.28u
X59 a_6642_2034# a_550_1260.t7 a_6516_0.t4 VSSA.t31 nfet_03v3 ad=0.9516p pd=4.34u as=0.9516p ps=4.34u w=1.56u l=0.28u
X60 a_14322_0.t3 a_7670_372.t4 VSSA.t51 VSSA.t50 nfet_03v3 ad=0.9516p pd=4.34u as=0.9516p ps=4.34u w=1.56u l=0.28u
X61 a_13035_8367.t1 a_6598_8268.t5 VSSA.t19 VSSA.t18 nfet_03v3 ad=1.891p pd=7.42u as=1.891p ps=7.42u w=3.1u l=0.28u
X62 VDP.t7 VSSA.t70 Vcom.t3 VSSA.t71 nfet_03v3 ad=3.66p pd=13.219999u as=3.66p ps=13.219999u w=6u l=0.28u
X63 a_13035_8367.t3 VDN.t13 a_12857_9469.t4 VSSA.t24 nfet_03v3 ad=1.891p pd=7.42u as=1.891p ps=7.42u w=3.1u l=0.28u
X64 a_12857_9469.t0 a_6598_8268.t6 VDDD.t19 VDDD.t18 pfet_03v3 ad=1.5275p pd=6u as=1.5275p ps=6u w=2.35u l=0.28u
X65 a_12857_8367.t0 a_6598_8268.t7 VDDD.t21 VDDD.t20 pfet_03v3 ad=1.5275p pd=6u as=1.5275p ps=6u w=2.35u l=0.28u
X66 a_13020_1940.t0 VDDA.t11 a_13282_0# VSSA.t49 nfet_03v3 ad=0.9516p pd=4.34u as=0.9516p ps=4.34u w=1.56u l=0.28u
X67 VDDA.t3 a_6576_1898# a_13140_1804# VDDA.t2 pfet_03v3 ad=2.6p pd=9.3u as=2.6p ps=9.3u w=4u l=0.28u
X68 a_1835_7596# A.t0 a_3044_8604# VSSA.t40 nfet_03v3 ad=0.9516p pd=4.34u as=0.9516p ps=4.34u w=1.56u l=2u
X69 vocp.t0 a_16769_10150.t9 VSSA.t92 VSSA.t91 nfet_03v3 ad=0.9516p pd=4.34u as=0.9516p ps=4.34u w=1.56u l=0.28u
X70 a_13035_8367.t12 VDP.t12 a_12857_8367.t5 VSSA.t27 nfet_03v3 ad=1.891p pd=7.42u as=1.891p ps=7.42u w=3.1u l=0.28u
X71 a_550_1260.t1 a_6642_2034# a_8996_1940.t1 w_8692_1762# pfet_03v3 ad=2.6p pd=9.3u as=2.6p ps=9.3u w=4u l=0.28u
X72 VDP.t0 a_550_1260.t8 Vinp.t1 VSSA.t32 nfet_03v3 ad=3.66p pd=13.219999u as=3.66p ps=13.219999u w=6u l=0.28u
X73 a_13206_1940.t2 a_14322_0.t4 cap_mim_2f0_m4m5_noshield c_width=10u c_length=10u
X74 VSSA.t21 a_6598_8268.t8 a_13035_8367.t2 VSSA.t20 nfet_03v3 ad=1.891p pd=7.42u as=1.891p ps=7.42u w=3.1u l=0.28u
X75 a_16649_9112.t3 a_12857_9469.t11 a_16649_10286.t3 VDDD.t35 pfet_03v3 ad=2.535p pd=9.1u as=2.535p ps=9.1u w=3.9u l=0.28u
X76 a_12857_8367.t4 VDP.t13 a_13035_8367.t11 VSSA.t28 nfet_03v3 ad=1.891p pd=7.42u as=1.891p ps=7.42u w=3.1u l=0.28u
X77 a_578_8454# CK1.t1 a_n38_8454# VDDD.t32 pfet_03v3 ad=2.535p pd=9.1u as=2.535p ps=9.1u w=3.9u l=0.28u
X78 a_6598_8268.t1 a_1835_7596# VDDD.t1 VDDD.t0 pfet_03v3 ad=2.535p pd=9.1u as=2.535p ps=9.1u w=3.9u l=0.28u
X79 a_3566_8100# a_n38_7194.t8 a_3044_8604# VSSA.t40 nfet_03v3 ad=0.9516p pd=4.34u as=0.9516p ps=4.34u w=1.56u l=2u
X80 a_6642_2034# a_6576_1898# a_6516_0.t0 VSSA.t8 nfet_03v3 ad=0.9516p pd=4.34u as=0.9516p ps=4.34u w=1.56u l=0.28u
X81 a_16769_10150.t2 a_12857_8367.t11 a_18596_10286.t4 VDDD.t8 pfet_03v3 ad=2.535p pd=9.1u as=2.535p ps=9.1u w=3.9u l=0.28u
X82 a_13206_1940.t2 a_14322_0.t4 cap_mim_2f0_m4m5_noshield c_width=10u c_length=10u
X83 VDP.t1 a_550_1260.t9 Vinp.t0 VSSA.t33 nfet_03v3 ad=3.66p pd=13.219999u as=3.66p ps=13.219999u w=6u l=0.28u
X84 VDDD.t25 a_6598_8268.t9 a_12857_9469.t1 VDDD.t24 pfet_03v3 ad=1.5275p pd=6u as=1.5275p ps=6u w=2.35u l=0.28u
X85 a_13282_0# a_7670_372.t5 VSSA.t58 VSSA.t57 nfet_03v3 ad=0.9516p pd=4.34u as=0.9516p ps=4.34u w=1.56u l=0.28u
X86 a_13035_8367.t10 VDP.t14 a_12857_8367.t3 VSSA.t47 nfet_03v3 ad=1.891p pd=7.42u as=1.891p ps=7.42u w=3.1u l=0.28u
X87 VDDD.t27 a_6598_8268.t10 a_12857_8367.t1 VDDD.t26 pfet_03v3 ad=1.5275p pd=6u as=1.5275p ps=6u w=2.35u l=0.28u
X88 VSSA.t54 a_16649_9112.t9 a_16769_10150.t1 VSSA.t16 nfet_03v3 ad=2.52p pd=7.1u as=3.843p ps=13.82u w=6.3u l=0.28u
X89 a_16649_10286.t7 a_16769_10150.t10 VDDD.t41 VDDD.t35 pfet_03v3 ad=2.535p pd=9.1u as=2.535p ps=9.1u w=3.9u l=0.28u
X90 VDP.t6 VSSA.t68 Vcom.t2 VSSA.t69 nfet_03v3 ad=3.66p pd=13.219999u as=3.66p ps=13.219999u w=6u l=0.28u
X91 a_6598_8268.t0 a_1835_7596# VSSA.t5 VSSA.t4 nfet_03v3 ad=0.9516p pd=4.34u as=0.9516p ps=4.34u w=1.56u l=0.28u
X92 a_18596_10286.t2 a_16649_9112.t10 VDDD.t9 VDDD.t8 pfet_03v3 ad=2.535p pd=9.1u as=2.535p ps=9.1u w=3.9u l=0.28u
X93 a_1835_7596# a_n38_7194.t9 VDDD.t37 VDDD.t36 pfet_03v3 ad=2.535p pd=9.1u as=2.535p ps=9.1u w=3.9u l=0.28u
X94 a_3566_8100# a_n38_7194.t10 VSSA.t86 VSSA.t85 nfet_03v3 ad=0.9516p pd=4.34u as=0.9516p ps=4.34u w=1.56u l=2u
X95 Valid.t0 vocp.t3 VDDD.t23 VDDD.t22 pfet_03v3 ad=2.535p pd=9.1u as=2.535p ps=9.1u w=3.9u l=0.28u
X96 a_12857_8367.t2 VDP.t15 a_13035_8367.t9 VSSA.t22 nfet_03v3 ad=1.891p pd=7.42u as=1.891p ps=7.42u w=3.1u l=0.28u
X97 Vcom.t5 VSSA.t66 VDN.t8 VSSA.t67 nfet_03v3 ad=3.66p pd=13.219999u as=3.66p ps=13.219999u w=6u l=0.28u
X98 a_16769_10150.t0 a_15986_8213# VSSA.t3 VSSA.t2 nfet_03v3 ad=1.891p pd=7.42u as=1.891p ps=7.42u w=3.1u l=0.28u
X99 VDP.t5 VSSA.t64 Vcom.t1 VSSA.t65 nfet_03v3 ad=3.66p pd=13.219999u as=3.66p ps=13.219999u w=6u l=0.28u
X100 a_1835_7596# B.t0 a_4064_8604# VSSA.t40 nfet_03v3 ad=0.9516p pd=4.34u as=0.9516p ps=4.34u w=1.56u l=2u
X101 VDP.t8 VSSA.t62 Vcom.t0 VSSA.t63 nfet_03v3 ad=3.66p pd=13.219999u as=3.66p ps=13.219999u w=6u l=0.28u
X102 VDDD.t34 a_20974_8213.t3 Valid.t2 VDDD.t33 pfet_03v3 ad=2.535p pd=9.1u as=2.535p ps=9.1u w=3.9u l=0.28u
X103 a_16649_9112.t1 a_16769_10150.t11 VSSA.t17 VSSA.t16 nfet_03v3 ad=3.843p pd=13.82u as=2.52p ps=7.1u w=6.3u l=0.28u
X104 a_13035_8367.t4 VDN.t14 a_12857_9469.t3 VSSA.t27 nfet_03v3 ad=1.891p pd=7.42u as=1.891p ps=7.42u w=3.1u l=0.28u
X105 Vinn.t1 a_13020_1940.t9 VDN.t4 VSSA.t46 nfet_03v3 ad=3.66p pd=13.219999u as=3.66p ps=13.219999u w=6u l=0.28u
X106 VDDD.t17 a_16769_10150.t12 a_16649_10286.t0 VDDD.t16 pfet_03v3 ad=2.535p pd=9.1u as=2.535p ps=9.1u w=3.9u l=0.28u
X107 a_6576_1898# a_7670_372.t6 VDDA.t9 VDDA.t8 pfet_03v3 ad=2.535p pd=9.1u as=2.535p ps=9.1u w=3.9u l=0.28u
X108 a_6576_1898# a_7670_372.t7 VSSA.t15 VSSA.t14 nfet_03v3 ad=0.9516p pd=4.34u as=0.9516p ps=4.34u w=1.56u l=0.28u
X109 a_16649_9112.t0 a_15986_8213# VSSA.t1 VSSA.t0 nfet_03v3 ad=1.891p pd=7.42u as=1.891p ps=7.42u w=3.1u l=0.28u
X110 a_1835_7596# C.t0 a_5084_8604# VSSA.t40 nfet_03v3 ad=0.9516p pd=4.34u as=0.9516p ps=4.34u w=1.56u l=2u
X111 a_n38_7194.t1 clks.t3 VSSA.t42 VSSA.t41 nfet_03v3 ad=0.9516p pd=4.34u as=0.9516p ps=4.34u w=1.56u l=0.28u
X112 a_12857_9469.t2 VDN.t15 a_13035_8367.t5 VSSA.t28 nfet_03v3 ad=1.891p pd=7.42u as=1.891p ps=7.42u w=3.1u l=0.28u
X113 a_4586_8100# a_n38_7194.t11 a_4064_8604# VSSA.t40 nfet_03v3 ad=0.9516p pd=4.34u as=0.9516p ps=4.34u w=1.56u l=2u
X114 a_6642_2034# a_6576_1898# VDDA.t1 VDDA.t0 pfet_03v3 ad=2.6p pd=9.3u as=2.6p ps=9.3u w=4u l=0.28u
X115 VDDD.t7 a_16649_9112.t11 a_18596_10286.t1 VDDD.t6 pfet_03v3 ad=2.535p pd=9.1u as=2.535p ps=9.1u w=3.9u l=0.28u
X116 VDDD.t5 a_16649_9112.t12 a_18596_10286.t0 VDDD.t4 pfet_03v3 ad=2.535p pd=9.1u as=2.535p ps=9.1u w=3.9u l=0.28u
R0 a_n38_7194.n1 a_n38_7194.t9 69.7041
R1 a_n38_7194.n5 a_n38_7194.t10 18.9492
R2 a_n38_7194.n5 a_n38_7194.n0 16.1022
R3 a_n38_7194.n11 a_n38_7194.t3 8.91317
R4 a_n38_7194.n2 a_n38_7194.t7 5.78159
R5 a_n38_7194.n6 a_n38_7194.t5 5.78159
R6 a_n38_7194.t10 a_n38_7194.n4 5.78159
R7 a_n38_7194.n11 a_n38_7194.n10 5.51078
R8 a_n38_7194.n8 a_n38_7194.n2 4.8812
R9 a_n38_7194.n7 a_n38_7194.n6 4.88014
R10 a_n38_7194.n4 a_n38_7194.n3 4.88014
R11 a_n38_7194.n10 a_n38_7194.t0 3.7821
R12 a_n38_7194.n10 a_n38_7194.t1 3.77824
R13 a_n38_7194.n9 a_n38_7194.t6 3.31103
R14 a_n38_7194.t7 a_n38_7194.n0 2.8475
R15 a_n38_7194.t5 a_n38_7194.n5 2.8475
R16 a_n38_7194.t2 a_n38_7194.n12 2.68865
R17 a_n38_7194.n12 a_n38_7194.n11 2.6871
R18 a_n38_7194.n2 a_n38_7194.t4 2.31974
R19 a_n38_7194.n6 a_n38_7194.t11 2.31974
R20 a_n38_7194.n4 a_n38_7194.t8 2.31974
R21 a_n38_7194.n9 a_n38_7194.n1 2.25442
R22 a_n38_7194.n0 a_n38_7194.n8 2.06305
R23 a_n38_7194.t6 a_n38_7194.n0 1.40999
R24 a_n38_7194.n3 a_n38_7194.n1 1.24808
R25 a_n38_7194.n7 a_n38_7194.n3 1.1764
R26 a_n38_7194.n8 a_n38_7194.n7 1.17534
R27 a_n38_7194.n12 a_n38_7194.n9 0.643141
R28 VSSA.n95 VSSA.t61 69395.6
R29 VSSA.n64 VSSA.n63 37917.5
R30 VSSA.n114 VSSA.n64 24269.2
R31 VSSA.n118 VSSA.n62 17014.8
R32 VSSA.n95 VSSA.n63 9215.29
R33 VSSA.n118 VSSA.t14 6746.92
R34 VSSA.n106 VSSA.t41 6432.51
R35 VSSA.n95 VSSA.n62 6431.64
R36 VSSA.n60 VSSA.t50 6138.27
R37 VSSA.t40 VSSA.n96 4165.41
R38 VSSA.n65 VSSA.n64 2560.7
R39 VSSA.n119 VSSA.t50 1970.03
R40 VSSA.n113 VSSA.n112 1964.01
R41 VSSA.n96 VSSA.n95 1441.74
R42 VSSA.n115 VSSA.n63 1180.84
R43 VSSA.t8 VSSA.t36 1103.96
R44 VSSA.n117 VSSA.t38 722.437
R45 VSSA.t35 VSSA.n114 628.307
R46 VSSA.n115 VSSA.t55 551.212
R47 VSSA.t87 VSSA.n96 402.64
R48 VSSA.t85 VSSA.t87 375.517
R49 VSSA.t55 VSSA.t48 354.894
R50 VSSA.t48 VSSA.t35 354.894
R51 VSSA.t84 VSSA.t49 354.894
R52 VSSA.t49 VSSA.t57 354.894
R53 VSSA.t29 VSSA.t31 345.18
R54 VSSA.t31 VSSA.t8 345.18
R55 VSSA.t44 VSSA.t9 345.18
R56 VSSA.t83 VSSA.t0 342.527
R57 VSSA.n106 VSSA.t40 328.19
R58 VSSA.n121 VSSA.t9 327.921
R59 VSSA.t57 VSSA.n118 286.88
R60 VSSA.t87 VSSA.n65 284.053
R61 VSSA.t81 VSSA.t34 282.988
R62 VSSA.t34 VSSA.t71 282.988
R63 VSSA.t71 VSSA.t33 282.988
R64 VSSA.t40 VSSA.t4 250.345
R65 VSSA.n116 VSSA.n115 243.185
R66 VSSA.t14 VSSA.n117 240.812
R67 VSSA.t38 VSSA.n116 240.812
R68 VSSA.n119 VSSA.t84 223.285
R69 VSSA.t36 VSSA.n113 222.036
R70 VSSA.n120 VSSA.n119 203.79
R71 VSSA.n61 VSSA.n60 180.715
R72 VSSA.t47 VSSA.t28 164.358
R73 VSSA.t27 VSSA.n61 160.149
R74 VSSA.t37 VSSA.t69 152.749
R75 VSSA.t43 VSSA.t75 143.524
R76 VSSA.t82 VSSA.t73 143.524
R77 VSSA.t45 VSSA.t77 143.524
R78 VSSA.t65 VSSA.t6 142.173
R79 VSSA.t67 VSSA.t25 141.869
R80 VSSA.t59 VSSA.t32 135.124
R81 VSSA.t46 VSSA.t52 129.173
R82 VSSA.t85 VSSA.t4 125.172
R83 VSSA.t63 VSSA.n111 118.787
R84 VSSA.t2 VSSA.t45 117.581
R85 VSSA.n112 VSSA.n65 115.984
R86 VSSA.t77 VSSA.t16 107.091
R87 VSSA.n112 VSSA.t63 103.469
R88 VSSA.n162 VSSA.t66 102.463
R89 VSSA.n163 VSSA.t74 102.463
R90 VSSA.n164 VSSA.t78 102.463
R91 VSSA.n165 VSSA.t72 102.463
R92 VSSA.n166 VSSA.t76 102.463
R93 VSSA.n181 VSSA.t80 102.463
R94 VSSA.n180 VSSA.t70 102.463
R95 VSSA.n179 VSSA.t62 102.463
R96 VSSA.n178 VSSA.t68 102.463
R97 VSSA.n177 VSSA.t64 102.463
R98 VSSA.n60 VSSA.n59 90.7114
R99 VSSA.n122 VSSA.t82 88.8752
R100 VSSA.t33 VSSA.n112 88.1619
R101 VSSA.t23 VSSA.t18 83.8315
R102 VSSA.t24 VSSA.t20 83.8315
R103 VSSA.t28 VSSA.t10 83.8315
R104 VSSA.n121 VSSA.t12 81.2623
R105 VSSA.t18 VSSA.t27 80.5278
R106 VSSA.t20 VSSA.t23 80.5278
R107 VSSA.t10 VSSA.t24 80.5278
R108 VSSA.n62 VSSA.t47 69.078
R109 VSSA.t91 VSSA.n94 69.0026
R110 VSSA.t75 VSSA.t91 65.6905
R111 VSSA.t12 VSSA.n120 63.7816
R112 VSSA.n114 VSSA.t29 63.0622
R113 VSSA.n113 VSSA.t81 60.9516
R114 VSSA.n122 VSSA.t79 54.6502
R115 VSSA.n120 VSSA.n59 54.3325
R116 VSSA.t0 VSSA.n121 50.8096
R117 VSSA.t41 VSSA.t65 38.7749
R118 VSSA.t16 VSSA.t83 36.4336
R119 VSSA.n111 VSSA.t32 30.07
R120 VSSA.t61 VSSA.t67 28.1534
R121 VSSA.t73 VSSA.t2 25.9453
R122 VSSA.n120 VSSA.t44 20.5785
R123 VSSA.t69 VSSA.t59 17.6252
R124 VSSA.t52 VSSA.t79 14.3529
R125 VSSA.t6 VSSA.t37 10.5753
R126 VSSA.n108 VSSA.n107 9.08175
R127 VSSA.n94 VSSA.t46 8.83277
R128 VSSA.n100 VSSA.n99 5.19379
R129 VSSA.n123 VSSA.n50 5.06372
R130 VSSA.n104 VSSA.n103 5.00454
R131 VSSA.n167 VSSA.n161 4.9295
R132 VSSA.n182 VSSA.n24 4.9295
R133 VSSA.n108 VSSA.n92 4.67226
R134 VSSA.n105 VSSA.n104 4.50135
R135 VSSA.n100 VSSA.n97 4.50135
R136 VSSA.n46 VSSA.n41 4.5005
R137 VSSA.n41 VSSA.n37 4.5005
R138 VSSA.n130 VSSA.n41 4.5005
R139 VSSA.n131 VSSA.n34 4.5005
R140 VSSA.n131 VSSA.n32 4.5005
R141 VSSA.n131 VSSA.n35 4.5005
R142 VSSA.n131 VSSA.n31 4.5005
R143 VSSA.n131 VSSA.n36 4.5005
R144 VSSA.n131 VSSA.n30 4.5005
R145 VSSA.n131 VSSA.n37 4.5005
R146 VSSA.n131 VSSA.n130 4.5005
R147 VSSA.n89 VSSA.n88 4.5005
R148 VSSA.n90 VSSA.n89 4.5005
R149 VSSA.n88 VSSA.n70 4.5005
R150 VSSA.n90 VSSA.n70 4.5005
R151 VSSA.n82 VSSA.n23 4.5005
R152 VSSA.n80 VSSA.n23 4.5005
R153 VSSA.n78 VSSA.n23 4.5005
R154 VSSA.n76 VSSA.n23 4.5005
R155 VSSA.n74 VSSA.n23 4.5005
R156 VSSA.n90 VSSA.n23 4.5005
R157 VSSA.n188 VSSA.n10 4.5005
R158 VSSA.n158 VSSA.n0 4.5005
R159 VSSA.n158 VSSA.n135 4.5005
R160 VSSA.n158 VSSA.n157 4.5005
R161 VSSA.n10 VSSA.n5 4.5005
R162 VSSA.n9 VSSA.n5 4.5005
R163 VSSA.n190 VSSA.n5 4.5005
R164 VSSA.n193 VSSA.n5 4.5005
R165 VSSA.n140 VSSA.n135 4.5005
R166 VSSA.n157 VSSA.n140 4.5005
R167 VSSA.n10 VSSA.n3 4.5005
R168 VSSA.n14 VSSA.n3 4.5005
R169 VSSA.n190 VSSA.n3 4.5005
R170 VSSA.n193 VSSA.n3 4.5005
R171 VSSA.n138 VSSA.n0 4.5005
R172 VSSA.n153 VSSA.n138 4.5005
R173 VSSA.n151 VSSA.n138 4.5005
R174 VSSA.n155 VSSA.n138 4.5005
R175 VSSA.n138 VSSA.n135 4.5005
R176 VSSA.n157 VSSA.n138 4.5005
R177 VSSA.n9 VSSA.n6 4.5005
R178 VSSA.n14 VSSA.n6 4.5005
R179 VSSA.n190 VSSA.n6 4.5005
R180 VSSA.n193 VSSA.n6 4.5005
R181 VSSA.n142 VSSA.n0 4.5005
R182 VSSA.n153 VSSA.n142 4.5005
R183 VSSA.n151 VSSA.n142 4.5005
R184 VSSA.n155 VSSA.n142 4.5005
R185 VSSA.n142 VSSA.n135 4.5005
R186 VSSA.n157 VSSA.n142 4.5005
R187 VSSA.n10 VSSA.n2 4.5005
R188 VSSA.n13 VSSA.n2 4.5005
R189 VSSA.n9 VSSA.n2 4.5005
R190 VSSA.n14 VSSA.n2 4.5005
R191 VSSA.n190 VSSA.n2 4.5005
R192 VSSA.n193 VSSA.n2 4.5005
R193 VSSA.n137 VSSA.n0 4.5005
R194 VSSA.n153 VSSA.n137 4.5005
R195 VSSA.n151 VSSA.n137 4.5005
R196 VSSA.n155 VSSA.n137 4.5005
R197 VSSA.n137 VSSA.n135 4.5005
R198 VSSA.n157 VSSA.n137 4.5005
R199 VSSA.n10 VSSA.n7 4.5005
R200 VSSA.n13 VSSA.n7 4.5005
R201 VSSA.n9 VSSA.n7 4.5005
R202 VSSA.n14 VSSA.n7 4.5005
R203 VSSA.n190 VSSA.n7 4.5005
R204 VSSA.n193 VSSA.n7 4.5005
R205 VSSA.n144 VSSA.n0 4.5005
R206 VSSA.n153 VSSA.n144 4.5005
R207 VSSA.n151 VSSA.n144 4.5005
R208 VSSA.n155 VSSA.n144 4.5005
R209 VSSA.n144 VSSA.n135 4.5005
R210 VSSA.n157 VSSA.n144 4.5005
R211 VSSA.n10 VSSA.n1 4.5005
R212 VSSA.n13 VSSA.n1 4.5005
R213 VSSA.n9 VSSA.n1 4.5005
R214 VSSA.n14 VSSA.n1 4.5005
R215 VSSA.n190 VSSA.n1 4.5005
R216 VSSA.n193 VSSA.n1 4.5005
R217 VSSA.n136 VSSA.n0 4.5005
R218 VSSA.n153 VSSA.n136 4.5005
R219 VSSA.n151 VSSA.n136 4.5005
R220 VSSA.n155 VSSA.n136 4.5005
R221 VSSA.n136 VSSA.n135 4.5005
R222 VSSA.n157 VSSA.n136 4.5005
R223 VSSA.n192 VSSA.n10 4.5005
R224 VSSA.n192 VSSA.n13 4.5005
R225 VSSA.n192 VSSA.n9 4.5005
R226 VSSA.n192 VSSA.n14 4.5005
R227 VSSA.n193 VSSA.n192 4.5005
R228 VSSA.n156 VSSA.n0 4.5005
R229 VSSA.n156 VSSA.n153 4.5005
R230 VSSA.n156 VSSA.n151 4.5005
R231 VSSA.n156 VSSA.n155 4.5005
R232 VSSA.n157 VSSA.n156 4.5005
R233 VSSA.n53 VSSA.n52 4.10652
R234 VSSA.n175 VSSA.t30 4.00716
R235 VSSA.n28 VSSA.t51 3.99422
R236 VSSA.n125 VSSA.t26 3.96152
R237 VSSA.n69 VSSA.t42 3.96068
R238 VSSA.n67 VSSA.t60 3.92733
R239 VSSA.n68 VSSA.t7 3.92733
R240 VSSA.n170 VSSA.t58 3.81424
R241 VSSA.n25 VSSA.t56 3.81424
R242 VSSA.n27 VSSA.t15 3.76153
R243 VSSA.n98 VSSA.t90 3.76153
R244 VSSA.n101 VSSA.t89 3.76153
R245 VSSA.n102 VSSA.t86 3.76153
R246 VSSA.n58 VSSA.t13 3.76153
R247 VSSA.n49 VSSA.t92 3.76153
R248 VSSA.n26 VSSA.t39 3.76153
R249 VSSA.n123 VSSA.t53 3.74931
R250 VSSA.n66 VSSA.t88 3.74835
R251 VSSA.n61 VSSA.t22 3.74202
R252 VSSA.n170 VSSA.n169 3.722
R253 VSSA.n176 VSSA.n25 3.722
R254 VSSA.n99 VSSA.t5 3.71588
R255 VSSA.t40 VSSA.n97 3.67681
R256 VSSA.t40 VSSA.n105 3.6735
R257 VSSA.n111 VSSA.n66 3.46717
R258 VSSA.n111 VSSA.n110 3.46717
R259 VSSA.n107 VSSA.n106 3.46717
R260 VSSA.t85 VSSA.n101 3.46717
R261 VSSA.t85 VSSA.n98 3.46717
R262 VSSA.n102 VSSA.t85 3.46717
R263 VSSA.n99 VSSA.t4 3.46717
R264 VSSA.t40 VSSA.n93 3.46717
R265 VSSA.n94 VSSA.n49 3.46717
R266 VSSA.n123 VSSA.n122 3.46717
R267 VSSA.n59 VSSA.n58 3.46717
R268 VSSA.n117 VSSA.n27 3.46717
R269 VSSA.n116 VSSA.n26 3.46717
R270 VSSA.n56 VSSA.t11 3.05786
R271 VSSA.n92 VSSA.n91 2.786
R272 VSSA.n89 VSSA.n84 2.30169
R273 VSSA.n84 VSSA.n23 2.30169
R274 VSSA.n109 VSSA.n108 2.27175
R275 VSSA.n127 VSSA.n126 2.24919
R276 VSSA.n42 VSSA.n29 2.24919
R277 VSSA.n72 VSSA.n71 2.24919
R278 VSSA.n87 VSSA.n86 2.24919
R279 VSSA.n187 VSSA.n13 2.24919
R280 VSSA.n139 VSSA.n132 2.24919
R281 VSSA.n18 VSSA.n17 2.24919
R282 VSSA.n149 VSSA.n148 2.24919
R283 VSSA.n22 VSSA.n20 2.24919
R284 VSSA.n141 VSSA.n139 2.24919
R285 VSSA.n18 VSSA.n16 2.24919
R286 VSSA.n149 VSSA.n147 2.24919
R287 VSSA.n22 VSSA.n21 2.24919
R288 VSSA.n143 VSSA.n139 2.24919
R289 VSSA.n18 VSSA.n15 2.24919
R290 VSSA.n149 VSSA.n146 2.24919
R291 VSSA.n22 VSSA.n8 2.24919
R292 VSSA.n145 VSSA.n139 2.24919
R293 VSSA.n188 VSSA.n186 2.24868
R294 VSSA.n189 VSSA.n188 2.24868
R295 VSSA.n188 VSSA.n4 2.24868
R296 VSSA.n158 VSSA.n134 2.24868
R297 VSSA.n158 VSSA.n133 2.24868
R298 VSSA.n19 VSSA.n5 2.24868
R299 VSSA.n152 VSSA.n140 2.24868
R300 VSSA.n154 VSSA.n140 2.24868
R301 VSSA.n11 VSSA.n3 2.24868
R302 VSSA.n12 VSSA.n6 2.24868
R303 VSSA.n192 VSSA.n191 2.24868
R304 VSSA.n156 VSSA.n150 2.24868
R305 VSSA.n128 VSSA.n47 2.24631
R306 VSSA.n128 VSSA.n45 2.24631
R307 VSSA.n128 VSSA.n44 2.24631
R308 VSSA.n128 VSSA.n43 2.24631
R309 VSSA.n129 VSSA.n128 2.24631
R310 VSSA.n41 VSSA.n40 2.24631
R311 VSSA.n41 VSSA.n39 2.24631
R312 VSSA.n41 VSSA.n38 2.24631
R313 VSSA.n131 VSSA.n33 2.24631
R314 VSSA.n89 VSSA.n81 2.24548
R315 VSSA.n89 VSSA.n77 2.24548
R316 VSSA.n89 VSSA.n73 2.24548
R317 VSSA.n79 VSSA.n70 2.24548
R318 VSSA.n75 VSSA.n70 2.24548
R319 VSSA.n85 VSSA.n23 2.24548
R320 VSSA.n48 VSSA.t3 1.8634
R321 VSSA.n51 VSSA.t1 1.8634
R322 VSSA.n55 VSSA.t21 1.8634
R323 VSSA.n55 VSSA.t19 1.8634
R324 VSSA.n168 VSSA.n160 1.71954
R325 VSSA.n184 VSSA.n183 1.71954
R326 VSSA.t25 VSSA.t43 1.65655
R327 VSSA.n124 VSSA.n123 1.57916
R328 VSSA.n83 VSSA.n70 1.49665
R329 VSSA.n161 VSSA.n160 1.376
R330 VSSA.n184 VSSA.n24 1.376
R331 VSSA.n168 VSSA.n167 1.1795
R332 VSSA.n183 VSSA.n182 1.1795
R333 VSSA VSSA.n0 1.0307
R334 VSSA.n124 VSSA.n49 0.917485
R335 VSSA VSSA.n193 0.8927
R336 VSSA.n57 VSSA.n56 0.842512
R337 VSSA.n185 VSSA.n184 0.771063
R338 VSSA.n175 VSSA.n174 0.71597
R339 VSSA.n171 VSSA.n28 0.711742
R340 VSSA.n160 VSSA.n159 0.677396
R341 VSSA.n104 VSSA.n100 0.483658
R342 VSSA.n169 VSSA.n28 0.476754
R343 VSSA.n176 VSSA.n175 0.472525
R344 VSSA.n163 VSSA.n162 0.425955
R345 VSSA.n164 VSSA.n163 0.425955
R346 VSSA.n165 VSSA.n164 0.425955
R347 VSSA.n166 VSSA.n165 0.425955
R348 VSSA.n181 VSSA.n180 0.425955
R349 VSSA.n180 VSSA.n179 0.425955
R350 VSSA.n179 VSSA.n178 0.425955
R351 VSSA.n178 VSSA.n177 0.425955
R352 VSSA.n167 VSSA.n166 0.4235
R353 VSSA.n182 VSSA.n181 0.4235
R354 VSSA.n185 VSSA.n23 0.411761
R355 VSSA.n159 VSSA.n131 0.40708
R356 VSSA.n56 VSSA.n55 0.40082
R357 VSSA.n52 VSSA.t17 0.4005
R358 VSSA.n52 VSSA.t54 0.4005
R359 VSSA.n173 VSSA.n172 0.3755
R360 VSSA.n172 VSSA.n171 0.354996
R361 VSSA.n174 VSSA.n173 0.252246
R362 VSSA.n54 VSSA.n48 0.222229
R363 VSSA.n162 VSSA.n161 0.215682
R364 VSSA.n177 VSSA.n24 0.215682
R365 VSSA.n107 VSSA.n93 0.201714
R366 VSSA.n54 VSSA.n50 0.188214
R367 VSSA.n171 VSSA.n170 0.1625
R368 VSSA.n174 VSSA.n25 0.1625
R369 VSSA.n126 VSSA.n125 0.158588
R370 VSSA.n169 VSSA.n168 0.158
R371 VSSA.n183 VSSA.n176 0.158
R372 VSSA.n91 VSSA.n90 0.150539
R373 VSSA.n69 VSSA.n68 0.143347
R374 VSSA.n105 VSSA.n98 0.122015
R375 VSSA.n101 VSSA.n97 0.122015
R376 VSSA.n109 VSSA.n66 0.120123
R377 VSSA.n172 VSSA.n27 0.105416
R378 VSSA.n58 VSSA.n57 0.105416
R379 VSSA.n173 VSSA.n26 0.105416
R380 VSSA.n68 VSSA.n67 0.0991477
R381 VSSA.n67 VSSA.n66 0.0940339
R382 VSSA.n188 VSSA.n185 0.0922555
R383 VSSA.n159 VSSA.n158 0.0920215
R384 VSSA.n103 VSSA.n93 0.0816151
R385 VSSA.n124 VSSA.n48 0.072637
R386 VSSA.n103 VSSA.n102 0.0697223
R387 VSSA.n125 VSSA.n124 0.0663936
R388 VSSA.n57 VSSA.n54 0.0530587
R389 VSSA.n54 VSSA.n53 0.0510785
R390 VSSA.n91 VSSA.n69 0.033169
R391 VSSA.n90 VSSA.n71 0.0226429
R392 VSSA.n88 VSSA.n87 0.0226429
R393 VSSA.n110 VSSA.n109 0.0209248
R394 VSSA.n42 VSSA.n37 0.0192879
R395 VSSA.n83 VSSA.n82 0.0140572
R396 VSSA.n88 VSSA.n85 0.0120443
R397 VSSA.n87 VSSA.n73 0.0120443
R398 VSSA.n76 VSSA.n75 0.0120443
R399 VSSA.n77 VSSA.n76 0.0120443
R400 VSSA.n80 VSSA.n79 0.0120443
R401 VSSA.n81 VSSA.n80 0.0120443
R402 VSSA.n82 VSSA.n81 0.0120443
R403 VSSA.n78 VSSA.n77 0.0120443
R404 VSSA.n74 VSSA.n73 0.0120443
R405 VSSA.n79 VSSA.n78 0.0120443
R406 VSSA.n75 VSSA.n74 0.0120443
R407 VSSA.n85 VSSA.n71 0.0120443
R408 VSSA.n130 VSSA.n129 0.0103744
R409 VSSA.n43 VSSA.n37 0.0103744
R410 VSSA.n38 VSSA.n30 0.0103744
R411 VSSA.n44 VSSA.n36 0.0103744
R412 VSSA.n39 VSSA.n31 0.0103744
R413 VSSA.n45 VSSA.n35 0.0103744
R414 VSSA.n40 VSSA.n32 0.0103744
R415 VSSA.n47 VSSA.n34 0.0103744
R416 VSSA.n126 VSSA.n33 0.0103744
R417 VSSA.n47 VSSA.n46 0.0103744
R418 VSSA.n45 VSSA.n32 0.0103744
R419 VSSA.n44 VSSA.n31 0.0103744
R420 VSSA.n43 VSSA.n30 0.0103744
R421 VSSA.n129 VSSA.n42 0.0103744
R422 VSSA.n40 VSSA.n34 0.0103744
R423 VSSA.n39 VSSA.n35 0.0103744
R424 VSSA.n38 VSSA.n36 0.0103744
R425 VSSA.n46 VSSA.n33 0.0103744
R426 VSSA.n157 VSSA.n139 0.0098
R427 VSSA.n139 VSSA.n135 0.0098
R428 VSSA.n84 VSSA.n83 0.00752862
R429 VSSA.n150 VSSA.n149 0.0056452
R430 VSSA.n149 VSSA.n133 0.0056452
R431 VSSA.n154 VSSA.n151 0.0056452
R432 VSSA.n151 VSSA.n134 0.0056452
R433 VSSA.n152 VSSA.n0 0.0056452
R434 VSSA.n193 VSSA.n4 0.0056452
R435 VSSA.n191 VSSA.n190 0.0056452
R436 VSSA.n190 VSSA.n189 0.0056452
R437 VSSA.n22 VSSA.n19 0.0056452
R438 VSSA.n186 VSSA.n14 0.0056452
R439 VSSA.n11 VSSA.n9 0.0056452
R440 VSSA.n12 VSSA.n10 0.0056452
R441 VSSA.n186 VSSA.n9 0.0056452
R442 VSSA.n189 VSSA.n22 0.0056452
R443 VSSA.n18 VSSA.n4 0.0056452
R444 VSSA.n153 VSSA.n134 0.0056452
R445 VSSA.n155 VSSA.n133 0.0056452
R446 VSSA.n19 VSSA.n14 0.0056452
R447 VSSA.n153 VSSA.n152 0.0056452
R448 VSSA.n155 VSSA.n154 0.0056452
R449 VSSA.n13 VSSA.n11 0.0056452
R450 VSSA.n13 VSSA.n12 0.0056452
R451 VSSA.n191 VSSA.n18 0.0056452
R452 VSSA.n150 VSSA.n135 0.0056452
R453 VSSA.n128 VSSA.n127 0.00462517
R454 VSSA.n131 VSSA.n29 0.00462517
R455 VSSA.n140 VSSA.n132 0.00462517
R456 VSSA.n148 VSSA.n138 0.00462517
R457 VSSA.n142 VSSA.n141 0.00462517
R458 VSSA.n147 VSSA.n137 0.00462517
R459 VSSA.n144 VSSA.n143 0.00462517
R460 VSSA.n146 VSSA.n136 0.00462517
R461 VSSA.n156 VSSA.n145 0.00462517
R462 VSSA.n127 VSSA.n41 0.00462517
R463 VSSA.n41 VSSA.n29 0.00462517
R464 VSSA.n72 VSSA.n70 0.00462517
R465 VSSA.n86 VSSA.n23 0.00462517
R466 VSSA.n187 VSSA.n5 0.00462517
R467 VSSA.n17 VSSA.n3 0.00462517
R468 VSSA.n20 VSSA.n6 0.00462517
R469 VSSA.n16 VSSA.n2 0.00462517
R470 VSSA.n21 VSSA.n7 0.00462517
R471 VSSA.n15 VSSA.n1 0.00462517
R472 VSSA.n192 VSSA.n8 0.00462517
R473 VSSA.n89 VSSA.n72 0.00462517
R474 VSSA.n86 VSSA.n70 0.00462517
R475 VSSA.n188 VSSA.n187 0.00462517
R476 VSSA.n158 VSSA.n132 0.00462517
R477 VSSA.n17 VSSA.n5 0.00462517
R478 VSSA.n148 VSSA.n140 0.00462517
R479 VSSA.n20 VSSA.n3 0.00462517
R480 VSSA.n141 VSSA.n138 0.00462517
R481 VSSA.n16 VSSA.n6 0.00462517
R482 VSSA.n147 VSSA.n142 0.00462517
R483 VSSA.n21 VSSA.n2 0.00462517
R484 VSSA.n143 VSSA.n137 0.00462517
R485 VSSA.n15 VSSA.n7 0.00462517
R486 VSSA.n146 VSSA.n144 0.00462517
R487 VSSA.n8 VSSA.n1 0.00462517
R488 VSSA.n145 VSSA.n136 0.00462517
R489 VSSA.n51 VSSA.n50 0.00142975
R490 VSSA.n110 VSSA.n92 0.00105215
R491 VSSA.n53 VSSA.n51 0.000778926
R492 a_8996_1940.n0 a_8996_1940.t1 9.55575
R493 a_8996_1940.t0 a_8996_1940.n0 9.423
R494 a_8996_1940.n0 a_8996_1940.t2 0.56825
R495 a_6516_0.n0 a_6516_0.t5 9.25917
R496 a_6516_0.t0 a_6516_0.n0 9.21291
R497 a_6516_0.n0 a_6516_0.t4 9.00018
R498 a_6516_0.n0 a_6516_0.t3 9.00018
R499 a_6516_0.n0 a_6516_0.t2 3.23663
R500 a_6516_0.t2 a_6516_0.t1 2.58418
R501 clks.n1 clks.t2 74.8588
R502 clks.n0 clks.t1 70.3153
R503 clks.n1 clks.t3 44.2362
R504 clks.n0 clks.t0 39.854
R505 clks.n2 clks.n1 25.2373
R506 clks.n2 clks.n0 3.94282
R507 clks clks.n2 2.28154
R508 a_7670_372.n1 a_7670_372.t6 70.3153
R509 a_7670_372.n3 a_7670_372.t3 47.4691
R510 a_7670_372.n2 a_7670_372.t4 47.4691
R511 a_7670_372.n3 a_7670_372.t2 42.0788
R512 a_7670_372.n2 a_7670_372.t5 42.0788
R513 a_7670_372.n1 a_7670_372.t7 39.854
R514 a_7670_372.n0 a_7670_372.t1 6.1204
R515 a_7670_372.n0 a_7670_372.n4 5.66675
R516 a_7670_372.n4 a_7670_372.n3 4.72637