* Extracted by KLayout with GF180MCU LVS runset on : 01/12/2023 19:06

.SUBCKT FC_net VB2 VB3 VOUT AVDD VP VB4 VN VB1 AVSS
M$1 AVDD AVDD AVDD AVDD pfet_03v3 L=2U W=2U AS=1.3P AD=1.3P PS=5.3U PD=5.3U
M$2 AVDD AVDD AVDD AVDD pfet_03v3 L=2U W=2U AS=1.3P AD=0.84P PS=5.3U PD=2.84U
M$3 AVDD AVDD AVDD AVDD pfet_03v3 L=2U W=2U AS=0.84P AD=0.84P PS=2.84U PD=2.84U
M$4 AVDD AVDD AVDD AVDD pfet_03v3 L=2U W=2U AS=0.84P AD=0.84P PS=2.84U PD=2.84U
M$5 AVDD AVDD AVDD AVDD pfet_03v3 L=2U W=2U AS=0.84P AD=1.3P PS=2.84U PD=5.3U
M$6 AVDD AVDD AVDD AVDD pfet_03v3 L=2U W=2U AS=1.3P AD=0.84P PS=5.3U PD=2.84U
M$7 AVDD AVDD AVDD AVDD pfet_03v3 L=2U W=2U AS=0.84P AD=0.84P PS=2.84U PD=2.84U
M$8 AVDD AVDD AVDD AVDD pfet_03v3 L=2U W=2U AS=0.84P AD=1.3P PS=2.84U PD=5.3U
M$9 AVDD AVDD AVDD AVDD pfet_03v3 L=2U W=2U AS=1.3P AD=0.84P PS=5.3U PD=2.84U
M$10 AVDD AVDD AVDD AVDD pfet_03v3 L=2U W=2U AS=0.84P AD=0.84P PS=2.84U PD=2.84U
M$11 AVDD AVDD AVDD AVDD pfet_03v3 L=2U W=2U AS=0.84P AD=0.84P PS=2.84U PD=2.84U
M$12 AVDD AVDD AVDD AVDD pfet_03v3 L=2U W=2U AS=0.84P AD=1.3P PS=2.84U PD=5.3U
M$13 AVDD AVDD AVDD AVDD pfet_03v3 L=2U W=2U AS=1.3P AD=1.3P PS=5.3U PD=5.3U
M$14 AVDD AVDD AVDD AVDD pfet_03v3 L=2U W=2U AS=1.3P AD=1.3P PS=5.3U PD=5.3U
M$15 AVDD AVDD AVDD AVDD pfet_03v3 L=2U W=2U AS=1.3P AD=0.84P PS=5.3U PD=2.84U
M$16 AVDD AVDD AVDD AVDD pfet_03v3 L=2U W=2U AS=0.84P AD=0.84P PS=2.84U PD=2.84U
M$17 AVDD AVDD AVDD AVDD pfet_03v3 L=2U W=2U AS=0.84P AD=0.84P PS=2.84U PD=2.84U
M$18 AVDD AVDD AVDD AVDD pfet_03v3 L=2U W=2U AS=0.84P AD=1.3P PS=2.84U PD=5.3U
M$19 AVDD AVDD AVDD AVDD pfet_03v3 L=2U W=2U AS=1.3P AD=0.84P PS=5.3U PD=2.84U
M$20 AVDD AVDD AVDD AVDD pfet_03v3 L=2U W=2U AS=0.84P AD=0.84P PS=2.84U PD=2.84U
M$21 AVDD AVDD AVDD AVDD pfet_03v3 L=2U W=2U AS=0.84P AD=1.3P PS=2.84U PD=5.3U
M$22 AVDD AVDD AVDD AVDD pfet_03v3 L=2U W=2U AS=1.3P AD=0.84P PS=5.3U PD=2.84U
M$23 AVDD AVDD AVDD AVDD pfet_03v3 L=2U W=2U AS=0.84P AD=0.84P PS=2.84U PD=2.84U
M$24 AVDD AVDD AVDD AVDD pfet_03v3 L=2U W=2U AS=0.84P AD=0.84P PS=2.84U PD=2.84U
M$25 AVDD AVDD AVDD AVDD pfet_03v3 L=2U W=2U AS=0.84P AD=1.3P PS=2.84U PD=5.3U
M$26 AVDD AVDD AVDD AVDD pfet_03v3 L=2U W=2U AS=1.3P AD=1.3P PS=5.3U PD=5.3U
M$27 AVDD AVDD AVDD AVDD pfet_03v3 L=2U W=2U AS=1.3P AD=1.3P PS=5.3U PD=5.3U
M$28 AVDD AVDD AVDD AVDD pfet_03v3 L=2U W=2U AS=1.3P AD=0.84P PS=5.3U PD=2.84U
M$29 AVDD AVDD AVDD AVDD pfet_03v3 L=2U W=2U AS=0.84P AD=0.84P PS=2.84U PD=2.84U
M$30 AVDD AVDD AVDD AVDD pfet_03v3 L=2U W=2U AS=0.84P AD=0.84P PS=2.84U PD=2.84U
M$31 AVDD AVDD AVDD AVDD pfet_03v3 L=2U W=2U AS=0.84P AD=1.3P PS=2.84U PD=5.3U
M$32 AVDD AVDD AVDD AVDD pfet_03v3 L=2U W=2U AS=1.3P AD=0.84P PS=5.3U PD=2.84U
M$33 AVDD AVDD AVDD AVDD pfet_03v3 L=2U W=2U AS=0.84P AD=0.84P PS=2.84U PD=2.84U
M$34 AVDD AVDD AVDD AVDD pfet_03v3 L=2U W=2U AS=0.84P AD=1.3P PS=2.84U PD=5.3U
M$35 AVDD AVDD AVDD AVDD pfet_03v3 L=2U W=2U AS=1.3P AD=0.84P PS=5.3U PD=2.84U
M$36 AVDD AVDD AVDD AVDD pfet_03v3 L=2U W=2U AS=0.84P AD=0.84P PS=2.84U PD=2.84U
M$37 AVDD AVDD AVDD AVDD pfet_03v3 L=2U W=2U AS=0.84P AD=0.84P PS=2.84U PD=2.84U
M$38 AVDD AVDD AVDD AVDD pfet_03v3 L=2U W=2U AS=0.84P AD=1.3P PS=2.84U PD=5.3U
M$39 AVDD AVDD AVDD AVDD pfet_03v3 L=2U W=2U AS=1.3P AD=1.3P PS=5.3U PD=5.3U
M$40 AVDD AVDD AVDD AVDD pfet_03v3 L=2U W=2U AS=1.3P AD=1.3P PS=5.3U PD=5.3U
M$41 AVDD AVDD AVDD AVDD pfet_03v3 L=2U W=2U AS=1.3P AD=0.84P PS=5.3U PD=2.84U
M$42 AVDD AVDD AVDD AVDD pfet_03v3 L=2U W=2U AS=0.84P AD=0.84P PS=2.84U PD=2.84U
M$43 AVDD AVDD AVDD AVDD pfet_03v3 L=2U W=2U AS=0.84P AD=0.84P PS=2.84U PD=2.84U
M$44 AVDD AVDD AVDD AVDD pfet_03v3 L=2U W=2U AS=0.84P AD=1.3P PS=2.84U PD=5.3U
M$45 AVDD AVDD AVDD AVDD pfet_03v3 L=2U W=2U AS=1.3P AD=0.84P PS=5.3U PD=2.84U
M$46 AVDD AVDD AVDD AVDD pfet_03v3 L=2U W=2U AS=0.84P AD=0.84P PS=2.84U PD=2.84U
M$47 AVDD AVDD AVDD AVDD pfet_03v3 L=2U W=2U AS=0.84P AD=1.3P PS=2.84U PD=5.3U
M$48 AVDD AVDD AVDD AVDD pfet_03v3 L=2U W=2U AS=1.3P AD=0.84P PS=5.3U PD=2.84U
M$49 AVDD AVDD AVDD AVDD pfet_03v3 L=2U W=2U AS=0.84P AD=0.84P PS=2.84U PD=2.84U
M$50 AVDD AVDD AVDD AVDD pfet_03v3 L=2U W=2U AS=0.84P AD=0.84P PS=2.84U PD=2.84U
M$51 AVDD AVDD AVDD AVDD pfet_03v3 L=2U W=2U AS=0.84P AD=1.3P PS=2.84U PD=5.3U
M$52 AVDD AVDD AVDD AVDD pfet_03v3 L=2U W=2U AS=1.3P AD=1.3P PS=5.3U PD=5.3U
M$53 AVDD AVDD AVDD AVDD pfet_03v3 L=2U W=2U AS=1.3P AD=1.3P PS=5.3U PD=5.3U
M$54 \$179 VP \$13 AVDD pfet_03v3 L=2U W=2U AS=1.3P AD=0.84P PS=5.3U PD=2.84U
M$55 \$13 VP \$179 AVDD pfet_03v3 L=2U W=2U AS=0.84P AD=0.84P PS=2.84U PD=2.84U
M$56 \$179 VP \$13 AVDD pfet_03v3 L=2U W=2U AS=0.84P AD=0.84P PS=2.84U PD=2.84U
M$57 \$13 VP \$179 AVDD pfet_03v3 L=2U W=2U AS=0.84P AD=1.3P PS=2.84U PD=5.3U
M$58 \$179 VN \$14 AVDD pfet_03v3 L=2U W=2U AS=1.3P AD=0.84P PS=5.3U PD=2.84U
M$59 \$14 VN \$179 AVDD pfet_03v3 L=2U W=2U AS=0.84P AD=0.84P PS=2.84U PD=2.84U
M$60 \$179 VN \$14 AVDD pfet_03v3 L=2U W=2U AS=0.84P AD=1.3P PS=2.84U PD=5.3U
M$61 \$179 VP \$13 AVDD pfet_03v3 L=2U W=2U AS=1.3P AD=0.84P PS=5.3U PD=2.84U
M$62 \$13 VP \$179 AVDD pfet_03v3 L=2U W=2U AS=0.84P AD=0.84P PS=2.84U PD=2.84U
M$63 \$179 VP \$13 AVDD pfet_03v3 L=2U W=2U AS=0.84P AD=0.84P PS=2.84U PD=2.84U
M$64 \$13 VP \$179 AVDD pfet_03v3 L=2U W=2U AS=0.84P AD=1.3P PS=2.84U PD=5.3U
M$65 AVDD AVDD AVDD AVDD pfet_03v3 L=2U W=2U AS=1.3P AD=1.3P PS=5.3U PD=5.3U
M$66 AVDD AVDD AVDD AVDD pfet_03v3 L=2U W=2U AS=1.3P AD=1.3P PS=5.3U PD=5.3U
M$67 \$179 VP \$13 AVDD pfet_03v3 L=2U W=2U AS=1.3P AD=0.84P PS=5.3U PD=2.84U
M$68 \$13 VP \$179 AVDD pfet_03v3 L=2U W=2U AS=0.84P AD=0.84P PS=2.84U PD=2.84U
M$69 \$179 VP \$13 AVDD pfet_03v3 L=2U W=2U AS=0.84P AD=0.84P PS=2.84U PD=2.84U
M$70 \$13 VP \$179 AVDD pfet_03v3 L=2U W=2U AS=0.84P AD=1.3P PS=2.84U PD=5.3U
M$71 \$179 VN \$14 AVDD pfet_03v3 L=2U W=2U AS=1.3P AD=0.84P PS=5.3U PD=2.84U
M$72 \$14 VN \$179 AVDD pfet_03v3 L=2U W=2U AS=0.84P AD=0.84P PS=2.84U PD=2.84U
M$73 \$179 VN \$14 AVDD pfet_03v3 L=2U W=2U AS=0.84P AD=1.3P PS=2.84U PD=5.3U
M$74 \$179 VP \$13 AVDD pfet_03v3 L=2U W=2U AS=1.3P AD=0.84P PS=5.3U PD=2.84U
M$75 \$13 VP \$179 AVDD pfet_03v3 L=2U W=2U AS=0.84P AD=0.84P PS=2.84U PD=2.84U
M$76 \$179 VP \$13 AVDD pfet_03v3 L=2U W=2U AS=0.84P AD=0.84P PS=2.84U PD=2.84U
M$77 \$13 VP \$179 AVDD pfet_03v3 L=2U W=2U AS=0.84P AD=1.3P PS=2.84U PD=5.3U
M$78 AVDD AVDD AVDD AVDD pfet_03v3 L=2U W=2U AS=1.3P AD=1.3P PS=5.3U PD=5.3U
M$79 AVDD AVDD AVDD AVDD pfet_03v3 L=2U W=2U AS=1.3P AD=1.3P PS=5.3U PD=5.3U
M$80 \$180 VB4 \$98 AVDD pfet_03v3 L=2U W=2U AS=1.3P AD=0.84P PS=5.3U PD=2.84U
M$81 \$98 VB4 \$180 AVDD pfet_03v3 L=2U W=2U AS=0.84P AD=0.84P PS=2.84U PD=2.84U
M$82 \$180 VB4 \$98 AVDD pfet_03v3 L=2U W=2U AS=0.84P AD=0.84P PS=2.84U PD=2.84U
M$83 \$98 VB4 \$180 AVDD pfet_03v3 L=2U W=2U AS=0.84P AD=1.3P PS=2.84U PD=5.3U
M$84 \$174 VB4 VOUT AVDD pfet_03v3 L=2U W=2U AS=1.3P AD=0.84P PS=5.3U PD=2.84U
M$85 VOUT VB4 \$174 AVDD pfet_03v3 L=2U W=2U AS=0.84P AD=0.84P PS=2.84U PD=2.84U
M$86 \$174 VB4 VOUT AVDD pfet_03v3 L=2U W=2U AS=0.84P AD=1.3P PS=2.84U PD=5.3U
M$87 \$180 VB4 \$98 AVDD pfet_03v3 L=2U W=2U AS=1.3P AD=0.84P PS=5.3U PD=2.84U
M$88 \$98 VB4 \$180 AVDD pfet_03v3 L=2U W=2U AS=0.84P AD=0.84P PS=2.84U PD=2.84U
M$89 \$180 VB4 \$98 AVDD pfet_03v3 L=2U W=2U AS=0.84P AD=0.84P PS=2.84U PD=2.84U
M$90 \$98 VB4 \$180 AVDD pfet_03v3 L=2U W=2U AS=0.84P AD=1.3P PS=2.84U PD=5.3U
M$91 AVDD AVDD AVDD AVDD pfet_03v3 L=2U W=2U AS=1.3P AD=1.3P PS=5.3U PD=5.3U
M$92 AVDD AVDD AVDD AVDD pfet_03v3 L=2U W=2U AS=1.3P AD=1.3P PS=5.3U PD=5.3U
M$93 \$180 VB4 \$98 AVDD pfet_03v3 L=2U W=2U AS=1.3P AD=0.84P PS=5.3U PD=2.84U
M$94 \$98 VB4 \$180 AVDD pfet_03v3 L=2U W=2U AS=0.84P AD=0.84P PS=2.84U PD=2.84U
M$95 \$180 VB4 \$98 AVDD pfet_03v3 L=2U W=2U AS=0.84P AD=0.84P PS=2.84U PD=2.84U
M$96 \$98 VB4 \$180 AVDD pfet_03v3 L=2U W=2U AS=0.84P AD=1.3P PS=2.84U PD=5.3U
M$97 \$174 VB4 VOUT AVDD pfet_03v3 L=2U W=2U AS=1.3P AD=0.84P PS=5.3U PD=2.84U
M$98 VOUT VB4 \$174 AVDD pfet_03v3 L=2U W=2U AS=0.84P AD=0.84P PS=2.84U PD=2.84U
M$99 \$174 VB4 VOUT AVDD pfet_03v3 L=2U W=2U AS=0.84P AD=1.3P PS=2.84U PD=5.3U
M$100 \$180 VB4 \$98 AVDD pfet_03v3 L=2U W=2U AS=1.3P AD=0.84P PS=5.3U PD=2.84U
M$101 \$98 VB4 \$180 AVDD pfet_03v3 L=2U W=2U AS=0.84P AD=0.84P PS=2.84U
+ PD=2.84U
M$102 \$180 VB4 \$98 AVDD pfet_03v3 L=2U W=2U AS=0.84P AD=0.84P PS=2.84U
+ PD=2.84U
M$103 \$98 VB4 \$180 AVDD pfet_03v3 L=2U W=2U AS=0.84P AD=1.3P PS=2.84U PD=5.3U
M$104 AVDD AVDD AVDD AVDD pfet_03v3 L=2U W=2U AS=1.3P AD=1.3P PS=5.3U PD=5.3U
M$105 AVDD AVDD AVDD AVDD pfet_03v3 L=2U W=2U AS=1.3P AD=1.3P PS=5.3U PD=5.3U
M$106 \$179 VN \$14 AVDD pfet_03v3 L=2U W=2U AS=1.3P AD=0.84P PS=5.3U PD=2.84U
M$107 \$14 VN \$179 AVDD pfet_03v3 L=2U W=2U AS=0.84P AD=0.84P PS=2.84U PD=2.84U
M$108 \$179 VN \$14 AVDD pfet_03v3 L=2U W=2U AS=0.84P AD=0.84P PS=2.84U PD=2.84U
M$109 \$14 VN \$179 AVDD pfet_03v3 L=2U W=2U AS=0.84P AD=1.3P PS=2.84U PD=5.3U
M$110 \$13 VP \$179 AVDD pfet_03v3 L=2U W=2U AS=1.3P AD=0.84P PS=5.3U PD=2.84U
M$111 \$179 VP \$13 AVDD pfet_03v3 L=2U W=2U AS=0.84P AD=0.84P PS=2.84U PD=2.84U
M$112 \$13 VP \$179 AVDD pfet_03v3 L=2U W=2U AS=0.84P AD=1.3P PS=2.84U PD=5.3U
M$113 \$179 VN \$14 AVDD pfet_03v3 L=2U W=2U AS=1.3P AD=0.84P PS=5.3U PD=2.84U
M$114 \$14 VN \$179 AVDD pfet_03v3 L=2U W=2U AS=0.84P AD=0.84P PS=2.84U PD=2.84U
M$115 \$179 VN \$14 AVDD pfet_03v3 L=2U W=2U AS=0.84P AD=0.84P PS=2.84U PD=2.84U
M$116 \$14 VN \$179 AVDD pfet_03v3 L=2U W=2U AS=0.84P AD=1.3P PS=2.84U PD=5.3U
M$117 AVDD AVDD AVDD AVDD pfet_03v3 L=2U W=2U AS=1.3P AD=1.3P PS=5.3U PD=5.3U
M$118 AVDD AVDD AVDD AVDD pfet_03v3 L=2U W=2U AS=1.3P AD=1.3P PS=5.3U PD=5.3U
M$119 \$179 VN \$14 AVDD pfet_03v3 L=2U W=2U AS=1.3P AD=0.84P PS=5.3U PD=2.84U
M$120 \$14 VN \$179 AVDD pfet_03v3 L=2U W=2U AS=0.84P AD=0.84P PS=2.84U PD=2.84U
M$121 \$179 VN \$14 AVDD pfet_03v3 L=2U W=2U AS=0.84P AD=0.84P PS=2.84U PD=2.84U
M$122 \$14 VN \$179 AVDD pfet_03v3 L=2U W=2U AS=0.84P AD=1.3P PS=2.84U PD=5.3U
M$123 \$13 VP \$179 AVDD pfet_03v3 L=2U W=2U AS=1.3P AD=0.84P PS=5.3U PD=2.84U
M$124 \$179 VP \$13 AVDD pfet_03v3 L=2U W=2U AS=0.84P AD=0.84P PS=2.84U PD=2.84U
M$125 \$13 VP \$179 AVDD pfet_03v3 L=2U W=2U AS=0.84P AD=1.3P PS=2.84U PD=5.3U
M$126 \$179 VN \$14 AVDD pfet_03v3 L=2U W=2U AS=1.3P AD=0.84P PS=5.3U PD=2.84U
M$127 \$14 VN \$179 AVDD pfet_03v3 L=2U W=2U AS=0.84P AD=0.84P PS=2.84U PD=2.84U
M$128 \$179 VN \$14 AVDD pfet_03v3 L=2U W=2U AS=0.84P AD=0.84P PS=2.84U PD=2.84U
M$129 \$14 VN \$179 AVDD pfet_03v3 L=2U W=2U AS=0.84P AD=1.3P PS=2.84U PD=5.3U
M$130 AVDD AVDD AVDD AVDD pfet_03v3 L=2U W=2U AS=1.3P AD=1.3P PS=5.3U PD=5.3U
M$131 AVDD AVDD AVDD AVDD pfet_03v3 L=2U W=2U AS=1.3P AD=1.3P PS=5.3U PD=5.3U
M$132 \$174 VB4 VOUT AVDD pfet_03v3 L=2U W=2U AS=1.3P AD=0.84P PS=5.3U PD=2.84U
M$133 VOUT VB4 \$174 AVDD pfet_03v3 L=2U W=2U AS=0.84P AD=0.84P PS=2.84U
+ PD=2.84U
M$134 \$174 VB4 VOUT AVDD pfet_03v3 L=2U W=2U AS=0.84P AD=0.84P PS=2.84U
+ PD=2.84U
M$135 VOUT VB4 \$174 AVDD pfet_03v3 L=2U W=2U AS=0.84P AD=1.3P PS=2.84U PD=5.3U
M$136 \$98 VB4 \$180 AVDD pfet_03v3 L=2U W=2U AS=1.3P AD=0.84P PS=5.3U PD=2.84U
M$137 \$180 VB4 \$98 AVDD pfet_03v3 L=2U W=2U AS=0.84P AD=0.84P PS=2.84U
+ PD=2.84U
M$138 \$98 VB4 \$180 AVDD pfet_03v3 L=2U W=2U AS=0.84P AD=1.3P PS=2.84U PD=5.3U
M$139 \$174 VB4 VOUT AVDD pfet_03v3 L=2U W=2U AS=1.3P AD=0.84P PS=5.3U PD=2.84U
M$140 VOUT VB4 \$174 AVDD pfet_03v3 L=2U W=2U AS=0.84P AD=0.84P PS=2.84U
+ PD=2.84U
M$141 \$174 VB4 VOUT AVDD pfet_03v3 L=2U W=2U AS=0.84P AD=0.84P PS=2.84U
+ PD=2.84U
M$142 VOUT VB4 \$174 AVDD pfet_03v3 L=2U W=2U AS=0.84P AD=1.3P PS=2.84U PD=5.3U
M$143 AVDD AVDD AVDD AVDD pfet_03v3 L=2U W=2U AS=1.3P AD=1.3P PS=5.3U PD=5.3U
M$144 AVDD AVDD AVDD AVDD pfet_03v3 L=2U W=2U AS=1.3P AD=1.3P PS=5.3U PD=5.3U
M$145 \$174 VB4 VOUT AVDD pfet_03v3 L=2U W=2U AS=1.3P AD=0.84P PS=5.3U PD=2.84U
M$146 VOUT VB4 \$174 AVDD pfet_03v3 L=2U W=2U AS=0.84P AD=0.84P PS=2.84U
+ PD=2.84U
M$147 \$174 VB4 VOUT AVDD pfet_03v3 L=2U W=2U AS=0.84P AD=0.84P PS=2.84U
+ PD=2.84U
M$148 VOUT VB4 \$174 AVDD pfet_03v3 L=2U W=2U AS=0.84P AD=1.3P PS=2.84U PD=5.3U
M$149 \$98 VB4 \$180 AVDD pfet_03v3 L=2U W=2U AS=1.3P AD=0.84P PS=5.3U PD=2.84U
M$150 \$180 VB4 \$98 AVDD pfet_03v3 L=2U W=2U AS=0.84P AD=0.84P PS=2.84U
+ PD=2.84U
M$151 \$98 VB4 \$180 AVDD pfet_03v3 L=2U W=2U AS=0.84P AD=1.3P PS=2.84U PD=5.3U
M$152 \$174 VB4 VOUT AVDD pfet_03v3 L=2U W=2U AS=1.3P AD=0.84P PS=5.3U PD=2.84U
M$153 VOUT VB4 \$174 AVDD pfet_03v3 L=2U W=2U AS=0.84P AD=0.84P PS=2.84U
+ PD=2.84U
M$154 \$174 VB4 VOUT AVDD pfet_03v3 L=2U W=2U AS=0.84P AD=0.84P PS=2.84U
+ PD=2.84U
M$155 VOUT VB4 \$174 AVDD pfet_03v3 L=2U W=2U AS=0.84P AD=1.3P PS=2.84U PD=5.3U
M$156 AVDD AVDD AVDD AVDD pfet_03v3 L=2U W=2U AS=1.3P AD=1.3P PS=5.3U PD=5.3U
M$157 AVDD AVDD AVDD AVDD pfet_03v3 L=2U W=2U AS=1.3P AD=1.3P PS=5.3U PD=5.3U
M$158 \$179 VN \$14 AVDD pfet_03v3 L=2U W=2U AS=1.3P AD=0.84P PS=5.3U PD=2.84U
M$159 \$14 VN \$179 AVDD pfet_03v3 L=2U W=2U AS=0.84P AD=0.84P PS=2.84U PD=2.84U
M$160 \$179 VN \$14 AVDD pfet_03v3 L=2U W=2U AS=0.84P AD=0.84P PS=2.84U PD=2.84U
M$161 \$14 VN \$179 AVDD pfet_03v3 L=2U W=2U AS=0.84P AD=1.3P PS=2.84U PD=5.3U
M$162 \$13 VP \$179 AVDD pfet_03v3 L=2U W=2U AS=1.3P AD=0.84P PS=5.3U PD=2.84U
M$163 \$179 VP \$13 AVDD pfet_03v3 L=2U W=2U AS=0.84P AD=0.84P PS=2.84U PD=2.84U
M$164 \$13 VP \$179 AVDD pfet_03v3 L=2U W=2U AS=0.84P AD=1.3P PS=2.84U PD=5.3U
M$165 \$179 VN \$14 AVDD pfet_03v3 L=2U W=2U AS=1.3P AD=0.84P PS=5.3U PD=2.84U
M$166 \$14 VN \$179 AVDD pfet_03v3 L=2U W=2U AS=0.84P AD=0.84P PS=2.84U PD=2.84U
M$167 \$179 VN \$14 AVDD pfet_03v3 L=2U W=2U AS=0.84P AD=0.84P PS=2.84U PD=2.84U
M$168 \$14 VN \$179 AVDD pfet_03v3 L=2U W=2U AS=0.84P AD=1.3P PS=2.84U PD=5.3U
M$169 AVDD AVDD AVDD AVDD pfet_03v3 L=2U W=2U AS=1.3P AD=1.3P PS=5.3U PD=5.3U
M$170 AVDD AVDD AVDD AVDD pfet_03v3 L=2U W=2U AS=1.3P AD=1.3P PS=5.3U PD=5.3U
M$171 \$179 VN \$14 AVDD pfet_03v3 L=2U W=2U AS=1.3P AD=0.84P PS=5.3U PD=2.84U
M$172 \$14 VN \$179 AVDD pfet_03v3 L=2U W=2U AS=0.84P AD=0.84P PS=2.84U PD=2.84U
M$173 \$179 VN \$14 AVDD pfet_03v3 L=2U W=2U AS=0.84P AD=0.84P PS=2.84U PD=2.84U
M$174 \$14 VN \$179 AVDD pfet_03v3 L=2U W=2U AS=0.84P AD=1.3P PS=2.84U PD=5.3U
M$175 \$13 VP \$179 AVDD pfet_03v3 L=2U W=2U AS=1.3P AD=0.84P PS=5.3U PD=2.84U
M$176 \$179 VP \$13 AVDD pfet_03v3 L=2U W=2U AS=0.84P AD=0.84P PS=2.84U PD=2.84U
M$177 \$13 VP \$179 AVDD pfet_03v3 L=2U W=2U AS=0.84P AD=1.3P PS=2.84U PD=5.3U
M$178 \$179 VN \$14 AVDD pfet_03v3 L=2U W=2U AS=1.3P AD=0.84P PS=5.3U PD=2.84U
M$179 \$14 VN \$179 AVDD pfet_03v3 L=2U W=2U AS=0.84P AD=0.84P PS=2.84U PD=2.84U
M$180 \$179 VN \$14 AVDD pfet_03v3 L=2U W=2U AS=0.84P AD=0.84P PS=2.84U PD=2.84U
M$181 \$14 VN \$179 AVDD pfet_03v3 L=2U W=2U AS=0.84P AD=1.3P PS=2.84U PD=5.3U
M$182 AVDD AVDD AVDD AVDD pfet_03v3 L=2U W=2U AS=1.3P AD=1.3P PS=5.3U PD=5.3U
M$183 AVDD AVDD AVDD AVDD pfet_03v3 L=2U W=2U AS=1.3P AD=1.3P PS=5.3U PD=5.3U
M$184 \$174 VB4 VOUT AVDD pfet_03v3 L=2U W=2U AS=1.3P AD=0.84P PS=5.3U PD=2.84U
M$185 VOUT VB4 \$174 AVDD pfet_03v3 L=2U W=2U AS=0.84P AD=0.84P PS=2.84U
+ PD=2.84U
M$186 \$174 VB4 VOUT AVDD pfet_03v3 L=2U W=2U AS=0.84P AD=0.84P PS=2.84U
+ PD=2.84U
M$187 VOUT VB4 \$174 AVDD pfet_03v3 L=2U W=2U AS=0.84P AD=1.3P PS=2.84U PD=5.3U
M$188 \$98 VB4 \$180 AVDD pfet_03v3 L=2U W=2U AS=1.3P AD=0.84P PS=5.3U PD=2.84U
M$189 \$180 VB4 \$98 AVDD pfet_03v3 L=2U W=2U AS=0.84P AD=0.84P PS=2.84U
+ PD=2.84U
M$190 \$98 VB4 \$180 AVDD pfet_03v3 L=2U W=2U AS=0.84P AD=1.3P PS=2.84U PD=5.3U
M$191 \$174 VB4 VOUT AVDD pfet_03v3 L=2U W=2U AS=1.3P AD=0.84P PS=5.3U PD=2.84U
M$192 VOUT VB4 \$174 AVDD pfet_03v3 L=2U W=2U AS=0.84P AD=0.84P PS=2.84U
+ PD=2.84U
M$193 \$174 VB4 VOUT AVDD pfet_03v3 L=2U W=2U AS=0.84P AD=0.84P PS=2.84U
+ PD=2.84U
M$194 VOUT VB4 \$174 AVDD pfet_03v3 L=2U W=2U AS=0.84P AD=1.3P PS=2.84U PD=5.3U
M$195 AVDD AVDD AVDD AVDD pfet_03v3 L=2U W=2U AS=1.3P AD=1.3P PS=5.3U PD=5.3U
M$196 AVDD AVDD AVDD AVDD pfet_03v3 L=2U W=2U AS=1.3P AD=1.3P PS=5.3U PD=5.3U
M$197 \$174 VB4 VOUT AVDD pfet_03v3 L=2U W=2U AS=1.3P AD=0.84P PS=5.3U PD=2.84U
M$198 VOUT VB4 \$174 AVDD pfet_03v3 L=2U W=2U AS=0.84P AD=0.84P PS=2.84U
+ PD=2.84U
M$199 \$174 VB4 VOUT AVDD pfet_03v3 L=2U W=2U AS=0.84P AD=0.84P PS=2.84U
+ PD=2.84U
M$200 VOUT VB4 \$174 AVDD pfet_03v3 L=2U W=2U AS=0.84P AD=1.3P PS=2.84U PD=5.3U
M$201 \$98 VB4 \$180 AVDD pfet_03v3 L=2U W=2U AS=1.3P AD=0.84P PS=5.3U PD=2.84U
M$202 \$180 VB4 \$98 AVDD pfet_03v3 L=2U W=2U AS=0.84P AD=0.84P PS=2.84U
+ PD=2.84U
M$203 \$98 VB4 \$180 AVDD pfet_03v3 L=2U W=2U AS=0.84P AD=1.3P PS=2.84U PD=5.3U
M$204 \$174 VB4 VOUT AVDD pfet_03v3 L=2U W=2U AS=1.3P AD=0.84P PS=5.3U PD=2.84U
M$205 VOUT VB4 \$174 AVDD pfet_03v3 L=2U W=2U AS=0.84P AD=0.84P PS=2.84U
+ PD=2.84U
M$206 \$174 VB4 VOUT AVDD pfet_03v3 L=2U W=2U AS=0.84P AD=0.84P PS=2.84U
+ PD=2.84U
M$207 VOUT VB4 \$174 AVDD pfet_03v3 L=2U W=2U AS=0.84P AD=1.3P PS=2.84U PD=5.3U
M$208 AVDD AVDD AVDD AVDD pfet_03v3 L=2U W=2U AS=1.3P AD=1.3P PS=5.3U PD=5.3U
M$209 AVDD AVDD AVDD AVDD pfet_03v3 L=2U W=2U AS=1.3P AD=1.3P PS=5.3U PD=5.3U
M$210 \$179 VP \$13 AVDD pfet_03v3 L=2U W=2U AS=1.3P AD=0.84P PS=5.3U PD=2.84U
M$211 \$13 VP \$179 AVDD pfet_03v3 L=2U W=2U AS=0.84P AD=0.84P PS=2.84U PD=2.84U
M$212 \$179 VP \$13 AVDD pfet_03v3 L=2U W=2U AS=0.84P AD=0.84P PS=2.84U PD=2.84U
M$213 \$13 VP \$179 AVDD pfet_03v3 L=2U W=2U AS=0.84P AD=1.3P PS=2.84U PD=5.3U
M$214 \$14 VN \$179 AVDD pfet_03v3 L=2U W=2U AS=1.3P AD=0.84P PS=5.3U PD=2.84U
M$215 \$179 VN \$14 AVDD pfet_03v3 L=2U W=2U AS=0.84P AD=0.84P PS=2.84U PD=2.84U
M$216 \$14 VN \$179 AVDD pfet_03v3 L=2U W=2U AS=0.84P AD=1.3P PS=2.84U PD=5.3U
M$217 \$179 VP \$13 AVDD pfet_03v3 L=2U W=2U AS=1.3P AD=0.84P PS=5.3U PD=2.84U
M$218 \$13 VP \$179 AVDD pfet_03v3 L=2U W=2U AS=0.84P AD=0.84P PS=2.84U PD=2.84U
M$219 \$179 VP \$13 AVDD pfet_03v3 L=2U W=2U AS=0.84P AD=0.84P PS=2.84U PD=2.84U
M$220 \$13 VP \$179 AVDD pfet_03v3 L=2U W=2U AS=0.84P AD=1.3P PS=2.84U PD=5.3U
M$221 AVDD AVDD AVDD AVDD pfet_03v3 L=2U W=2U AS=1.3P AD=1.3P PS=5.3U PD=5.3U
M$222 AVDD AVDD AVDD AVDD pfet_03v3 L=2U W=2U AS=1.3P AD=1.3P PS=5.3U PD=5.3U
M$223 \$179 VP \$13 AVDD pfet_03v3 L=2U W=2U AS=1.3P AD=0.84P PS=5.3U PD=2.84U
M$224 \$13 VP \$179 AVDD pfet_03v3 L=2U W=2U AS=0.84P AD=0.84P PS=2.84U PD=2.84U
M$225 \$179 VP \$13 AVDD pfet_03v3 L=2U W=2U AS=0.84P AD=0.84P PS=2.84U PD=2.84U
M$226 \$13 VP \$179 AVDD pfet_03v3 L=2U W=2U AS=0.84P AD=1.3P PS=2.84U PD=5.3U
M$227 \$14 VN \$179 AVDD pfet_03v3 L=2U W=2U AS=1.3P AD=0.84P PS=5.3U PD=2.84U
M$228 \$179 VN \$14 AVDD pfet_03v3 L=2U W=2U AS=0.84P AD=0.84P PS=2.84U PD=2.84U
M$229 \$14 VN \$179 AVDD pfet_03v3 L=2U W=2U AS=0.84P AD=1.3P PS=2.84U PD=5.3U
M$230 \$179 VP \$13 AVDD pfet_03v3 L=2U W=2U AS=1.3P AD=0.84P PS=5.3U PD=2.84U
M$231 \$13 VP \$179 AVDD pfet_03v3 L=2U W=2U AS=0.84P AD=0.84P PS=2.84U PD=2.84U
M$232 \$179 VP \$13 AVDD pfet_03v3 L=2U W=2U AS=0.84P AD=0.84P PS=2.84U PD=2.84U
M$233 \$13 VP \$179 AVDD pfet_03v3 L=2U W=2U AS=0.84P AD=1.3P PS=2.84U PD=5.3U
M$234 AVDD AVDD AVDD AVDD pfet_03v3 L=2U W=2U AS=1.3P AD=1.3P PS=5.3U PD=5.3U
M$235 AVDD AVDD AVDD AVDD pfet_03v3 L=2U W=2U AS=1.3P AD=1.3P PS=5.3U PD=5.3U
M$236 \$180 VB4 \$98 AVDD pfet_03v3 L=2U W=2U AS=1.3P AD=0.84P PS=5.3U PD=2.84U
M$237 \$98 VB4 \$180 AVDD pfet_03v3 L=2U W=2U AS=0.84P AD=0.84P PS=2.84U
+ PD=2.84U
M$238 \$180 VB4 \$98 AVDD pfet_03v3 L=2U W=2U AS=0.84P AD=0.84P PS=2.84U
+ PD=2.84U
M$239 \$98 VB4 \$180 AVDD pfet_03v3 L=2U W=2U AS=0.84P AD=1.3P PS=2.84U PD=5.3U
M$240 VOUT VB4 \$174 AVDD pfet_03v3 L=2U W=2U AS=1.3P AD=0.84P PS=5.3U PD=2.84U
M$241 \$174 VB4 VOUT AVDD pfet_03v3 L=2U W=2U AS=0.84P AD=0.84P PS=2.84U
+ PD=2.84U
M$242 VOUT VB4 \$174 AVDD pfet_03v3 L=2U W=2U AS=0.84P AD=1.3P PS=2.84U PD=5.3U
M$243 \$180 VB4 \$98 AVDD pfet_03v3 L=2U W=2U AS=1.3P AD=0.84P PS=5.3U PD=2.84U
M$244 \$98 VB4 \$180 AVDD pfet_03v3 L=2U W=2U AS=0.84P AD=0.84P PS=2.84U
+ PD=2.84U
M$245 \$180 VB4 \$98 AVDD pfet_03v3 L=2U W=2U AS=0.84P AD=0.84P PS=2.84U
+ PD=2.84U
M$246 \$98 VB4 \$180 AVDD pfet_03v3 L=2U W=2U AS=0.84P AD=1.3P PS=2.84U PD=5.3U
M$247 AVDD AVDD AVDD AVDD pfet_03v3 L=2U W=2U AS=1.3P AD=1.3P PS=5.3U PD=5.3U
M$248 AVDD AVDD AVDD AVDD pfet_03v3 L=2U W=2U AS=1.3P AD=1.3P PS=5.3U PD=5.3U
M$249 \$180 VB4 \$98 AVDD pfet_03v3 L=2U W=2U AS=1.3P AD=0.84P PS=5.3U PD=2.84U
M$250 \$98 VB4 \$180 AVDD pfet_03v3 L=2U W=2U AS=0.84P AD=0.84P PS=2.84U
+ PD=2.84U
M$251 \$180 VB4 \$98 AVDD pfet_03v3 L=2U W=2U AS=0.84P AD=0.84P PS=2.84U
+ PD=2.84U
M$252 \$98 VB4 \$180 AVDD pfet_03v3 L=2U W=2U AS=0.84P AD=1.3P PS=2.84U PD=5.3U
M$253 VOUT VB4 \$174 AVDD pfet_03v3 L=2U W=2U AS=1.3P AD=0.84P PS=5.3U PD=2.84U
M$254 \$174 VB4 VOUT AVDD pfet_03v3 L=2U W=2U AS=0.84P AD=0.84P PS=2.84U
+ PD=2.84U
M$255 VOUT VB4 \$174 AVDD pfet_03v3 L=2U W=2U AS=0.84P AD=1.3P PS=2.84U PD=5.3U
M$256 \$180 VB4 \$98 AVDD pfet_03v3 L=2U W=2U AS=1.3P AD=0.84P PS=5.3U PD=2.84U
M$257 \$98 VB4 \$180 AVDD pfet_03v3 L=2U W=2U AS=0.84P AD=0.84P PS=2.84U
+ PD=2.84U
M$258 \$180 VB4 \$98 AVDD pfet_03v3 L=2U W=2U AS=0.84P AD=0.84P PS=2.84U
+ PD=2.84U
M$259 \$98 VB4 \$180 AVDD pfet_03v3 L=2U W=2U AS=0.84P AD=1.3P PS=2.84U PD=5.3U
M$260 AVDD AVDD AVDD AVDD pfet_03v3 L=2U W=2U AS=1.3P AD=1.3P PS=5.3U PD=5.3U
M$261 AVDD AVDD AVDD AVDD pfet_03v3 L=2U W=2U AS=1.3P AD=1.3P PS=5.3U PD=5.3U
M$262 AVDD AVDD AVDD AVDD pfet_03v3 L=2U W=2U AS=1.3P AD=0.84P PS=5.3U PD=2.84U
M$263 AVDD AVDD AVDD AVDD pfet_03v3 L=2U W=2U AS=0.84P AD=0.84P PS=2.84U
+ PD=2.84U
M$264 AVDD AVDD AVDD AVDD pfet_03v3 L=2U W=2U AS=0.84P AD=0.84P PS=2.84U
+ PD=2.84U
M$265 AVDD AVDD AVDD AVDD pfet_03v3 L=2U W=2U AS=0.84P AD=1.3P PS=2.84U PD=5.3U
M$266 AVDD AVDD AVDD AVDD pfet_03v3 L=2U W=2U AS=1.3P AD=0.84P PS=5.3U PD=2.84U
M$267 AVDD AVDD AVDD AVDD pfet_03v3 L=2U W=2U AS=0.84P AD=0.84P PS=2.84U
+ PD=2.84U
M$268 AVDD AVDD AVDD AVDD pfet_03v3 L=2U W=2U AS=0.84P AD=1.3P PS=2.84U PD=5.3U
M$269 AVDD AVDD AVDD AVDD pfet_03v3 L=2U W=2U AS=1.3P AD=0.84P PS=5.3U PD=2.84U
M$270 AVDD AVDD AVDD AVDD pfet_03v3 L=2U W=2U AS=0.84P AD=0.84P PS=2.84U
+ PD=2.84U
M$271 AVDD AVDD AVDD AVDD pfet_03v3 L=2U W=2U AS=0.84P AD=0.84P PS=2.84U
+ PD=2.84U
M$272 AVDD AVDD AVDD AVDD pfet_03v3 L=2U W=2U AS=0.84P AD=1.3P PS=2.84U PD=5.3U
M$273 AVDD AVDD AVDD AVDD pfet_03v3 L=2U W=2U AS=1.3P AD=1.3P PS=5.3U PD=5.3U
M$274 AVDD AVDD AVDD AVDD pfet_03v3 L=2U W=2U AS=1.3P AD=1.3P PS=5.3U PD=5.3U
M$275 AVDD AVDD AVDD AVDD pfet_03v3 L=2U W=2U AS=1.3P AD=0.84P PS=5.3U PD=2.84U
M$276 AVDD AVDD AVDD AVDD pfet_03v3 L=2U W=2U AS=0.84P AD=0.84P PS=2.84U
+ PD=2.84U
M$277 AVDD AVDD AVDD AVDD pfet_03v3 L=2U W=2U AS=0.84P AD=0.84P PS=2.84U
+ PD=2.84U
M$278 AVDD AVDD AVDD AVDD pfet_03v3 L=2U W=2U AS=0.84P AD=1.3P PS=2.84U PD=5.3U
M$279 AVDD AVDD AVDD AVDD pfet_03v3 L=2U W=2U AS=1.3P AD=0.84P PS=5.3U PD=2.84U
M$280 AVDD AVDD AVDD AVDD pfet_03v3 L=2U W=2U AS=0.84P AD=0.84P PS=2.84U
+ PD=2.84U
M$281 AVDD AVDD AVDD AVDD pfet_03v3 L=2U W=2U AS=0.84P AD=1.3P PS=2.84U PD=5.3U
M$282 AVDD AVDD AVDD AVDD pfet_03v3 L=2U W=2U AS=1.3P AD=0.84P PS=5.3U PD=2.84U
M$283 AVDD AVDD AVDD AVDD pfet_03v3 L=2U W=2U AS=0.84P AD=0.84P PS=2.84U
+ PD=2.84U
M$284 AVDD AVDD AVDD AVDD pfet_03v3 L=2U W=2U AS=0.84P AD=0.84P PS=2.84U
+ PD=2.84U
M$285 AVDD AVDD AVDD AVDD pfet_03v3 L=2U W=2U AS=0.84P AD=1.3P PS=2.84U PD=5.3U
M$286 AVDD AVDD AVDD AVDD pfet_03v3 L=2U W=2U AS=1.3P AD=1.3P PS=5.3U PD=5.3U
M$287 AVDD AVDD AVDD AVDD pfet_03v3 L=2U W=2U AS=1.3P AD=1.3P PS=5.3U PD=5.3U
M$288 AVDD AVDD AVDD AVDD pfet_03v3 L=2U W=2U AS=1.3P AD=0.84P PS=5.3U PD=2.84U
M$289 AVDD AVDD AVDD AVDD pfet_03v3 L=2U W=2U AS=0.84P AD=0.84P PS=2.84U
+ PD=2.84U
M$290 AVDD AVDD AVDD AVDD pfet_03v3 L=2U W=2U AS=0.84P AD=0.84P PS=2.84U
+ PD=2.84U
M$291 AVDD AVDD AVDD AVDD pfet_03v3 L=2U W=2U AS=0.84P AD=1.3P PS=2.84U PD=5.3U
M$292 AVDD AVDD AVDD AVDD pfet_03v3 L=2U W=2U AS=1.3P AD=0.84P PS=5.3U PD=2.84U
M$293 AVDD AVDD AVDD AVDD pfet_03v3 L=2U W=2U AS=0.84P AD=0.84P PS=2.84U
+ PD=2.84U
M$294 AVDD AVDD AVDD AVDD pfet_03v3 L=2U W=2U AS=0.84P AD=1.3P PS=2.84U PD=5.3U
M$295 AVDD AVDD AVDD AVDD pfet_03v3 L=2U W=2U AS=1.3P AD=0.84P PS=5.3U PD=2.84U
M$296 AVDD AVDD AVDD AVDD pfet_03v3 L=2U W=2U AS=0.84P AD=0.84P PS=2.84U
+ PD=2.84U
M$297 AVDD AVDD AVDD AVDD pfet_03v3 L=2U W=2U AS=0.84P AD=0.84P PS=2.84U
+ PD=2.84U
M$298 AVDD AVDD AVDD AVDD pfet_03v3 L=2U W=2U AS=0.84P AD=1.3P PS=2.84U PD=5.3U
M$299 AVDD AVDD AVDD AVDD pfet_03v3 L=2U W=2U AS=1.3P AD=1.3P PS=5.3U PD=5.3U
M$300 AVDD AVDD AVDD AVDD pfet_03v3 L=2U W=2U AS=1.3P AD=1.3P PS=5.3U PD=5.3U
M$301 AVDD AVDD AVDD AVDD pfet_03v3 L=2U W=2U AS=1.3P AD=0.84P PS=5.3U PD=2.84U
M$302 AVDD AVDD AVDD AVDD pfet_03v3 L=2U W=2U AS=0.84P AD=0.84P PS=2.84U
+ PD=2.84U
M$303 AVDD AVDD AVDD AVDD pfet_03v3 L=2U W=2U AS=0.84P AD=0.84P PS=2.84U
+ PD=2.84U
M$304 AVDD AVDD AVDD AVDD pfet_03v3 L=2U W=2U AS=0.84P AD=1.3P PS=2.84U PD=5.3U
M$305 AVDD AVDD AVDD AVDD pfet_03v3 L=2U W=2U AS=1.3P AD=0.84P PS=5.3U PD=2.84U
M$306 AVDD AVDD AVDD AVDD pfet_03v3 L=2U W=2U AS=0.84P AD=0.84P PS=2.84U
+ PD=2.84U
M$307 AVDD AVDD AVDD AVDD pfet_03v3 L=2U W=2U AS=0.84P AD=1.3P PS=2.84U PD=5.3U
M$308 AVDD AVDD AVDD AVDD pfet_03v3 L=2U W=2U AS=1.3P AD=0.84P PS=5.3U PD=2.84U
M$309 AVDD AVDD AVDD AVDD pfet_03v3 L=2U W=2U AS=0.84P AD=0.84P PS=2.84U
+ PD=2.84U
M$310 AVDD AVDD AVDD AVDD pfet_03v3 L=2U W=2U AS=0.84P AD=0.84P PS=2.84U
+ PD=2.84U
M$311 AVDD AVDD AVDD AVDD pfet_03v3 L=2U W=2U AS=0.84P AD=1.3P PS=2.84U PD=5.3U
M$312 AVDD AVDD AVDD AVDD pfet_03v3 L=2U W=2U AS=1.3P AD=1.3P PS=5.3U PD=5.3U
M$313 AVDD AVDD AVDD AVDD pfet_03v3 L=2U W=2U AS=1.3P AD=1.3P PS=5.3U PD=5.3U
M$314 AVDD AVDD AVDD AVDD pfet_03v3 L=2U W=2U AS=1.3P AD=0.84P PS=5.3U PD=2.84U
M$315 AVDD AVDD AVDD AVDD pfet_03v3 L=2U W=2U AS=0.84P AD=0.84P PS=2.84U
+ PD=2.84U
M$316 AVDD AVDD AVDD AVDD pfet_03v3 L=2U W=2U AS=0.84P AD=0.84P PS=2.84U
+ PD=2.84U
M$317 AVDD AVDD AVDD AVDD pfet_03v3 L=2U W=2U AS=0.84P AD=1.3P PS=2.84U PD=5.3U
M$318 AVDD AVDD AVDD AVDD pfet_03v3 L=2U W=2U AS=1.3P AD=0.84P PS=5.3U PD=2.84U
M$319 AVDD AVDD AVDD AVDD pfet_03v3 L=2U W=2U AS=0.84P AD=0.84P PS=2.84U
+ PD=2.84U
M$320 AVDD AVDD AVDD AVDD pfet_03v3 L=2U W=2U AS=0.84P AD=1.3P PS=2.84U PD=5.3U
M$321 AVDD AVDD AVDD AVDD pfet_03v3 L=2U W=2U AS=1.3P AD=0.84P PS=5.3U PD=2.84U
M$322 AVDD AVDD AVDD AVDD pfet_03v3 L=2U W=2U AS=0.84P AD=0.84P PS=2.84U
+ PD=2.84U
M$323 AVDD AVDD AVDD AVDD pfet_03v3 L=2U W=2U AS=0.84P AD=0.84P PS=2.84U
+ PD=2.84U
M$324 AVDD AVDD AVDD AVDD pfet_03v3 L=2U W=2U AS=0.84P AD=1.3P PS=2.84U PD=5.3U
M$325 AVDD AVDD AVDD AVDD pfet_03v3 L=2U W=2U AS=1.3P AD=1.3P PS=5.3U PD=5.3U
M$326 AVDD AVDD AVDD AVDD pfet_03v3 L=2U W=2U AS=1.3P AD=1.3P PS=5.3U PD=5.3U
M$327 AVDD AVDD AVDD AVDD pfet_03v3 L=2U W=2U AS=1.3P AD=0.84P PS=5.3U PD=2.84U
M$328 AVDD AVDD AVDD AVDD pfet_03v3 L=2U W=2U AS=0.84P AD=0.84P PS=2.84U
+ PD=2.84U
M$329 AVDD AVDD AVDD AVDD pfet_03v3 L=2U W=2U AS=0.84P AD=0.84P PS=2.84U
+ PD=2.84U
M$330 AVDD AVDD AVDD AVDD pfet_03v3 L=2U W=2U AS=0.84P AD=1.3P PS=2.84U PD=5.3U
M$331 AVDD AVDD AVDD AVDD pfet_03v3 L=2U W=2U AS=1.3P AD=0.84P PS=5.3U PD=2.84U
M$332 AVDD AVDD AVDD AVDD pfet_03v3 L=2U W=2U AS=0.84P AD=0.84P PS=2.84U
+ PD=2.84U
M$333 AVDD AVDD AVDD AVDD pfet_03v3 L=2U W=2U AS=0.84P AD=1.3P PS=2.84U PD=5.3U
M$334 AVDD AVDD AVDD AVDD pfet_03v3 L=2U W=2U AS=1.3P AD=0.84P PS=5.3U PD=2.84U
M$335 AVDD AVDD AVDD AVDD pfet_03v3 L=2U W=2U AS=0.84P AD=0.84P PS=2.84U
+ PD=2.84U
M$336 AVDD AVDD AVDD AVDD pfet_03v3 L=2U W=2U AS=0.84P AD=0.84P PS=2.84U
+ PD=2.84U
M$337 AVDD AVDD AVDD AVDD pfet_03v3 L=2U W=2U AS=0.84P AD=1.3P PS=2.84U PD=5.3U
M$338 AVDD AVDD AVDD AVDD pfet_03v3 L=2U W=2U AS=1.3P AD=1.3P PS=5.3U PD=5.3U
M$339 AVDD AVDD AVDD AVDD pfet_03v3 L=2U W=2U AS=1.3P AD=1.3P PS=5.3U PD=5.3U
M$340 AVDD AVDD AVDD AVDD pfet_03v3 L=2U W=2U AS=1.3P AD=0.84P PS=5.3U PD=2.84U
M$341 AVDD AVDD AVDD AVDD pfet_03v3 L=2U W=2U AS=0.84P AD=0.84P PS=2.84U
+ PD=2.84U
M$342 AVDD AVDD AVDD AVDD pfet_03v3 L=2U W=2U AS=0.84P AD=0.84P PS=2.84U
+ PD=2.84U
M$343 AVDD AVDD AVDD AVDD pfet_03v3 L=2U W=2U AS=0.84P AD=1.3P PS=2.84U PD=5.3U
M$344 AVDD AVDD AVDD AVDD pfet_03v3 L=2U W=2U AS=1.3P AD=0.84P PS=5.3U PD=2.84U
M$345 AVDD AVDD AVDD AVDD pfet_03v3 L=2U W=2U AS=0.84P AD=0.84P PS=2.84U
+ PD=2.84U
M$346 AVDD AVDD AVDD AVDD pfet_03v3 L=2U W=2U AS=0.84P AD=1.3P PS=2.84U PD=5.3U
M$347 AVDD AVDD AVDD AVDD pfet_03v3 L=2U W=2U AS=1.3P AD=0.84P PS=5.3U PD=2.84U
M$348 AVDD AVDD AVDD AVDD pfet_03v3 L=2U W=2U AS=0.84P AD=0.84P PS=2.84U
+ PD=2.84U
M$349 AVDD AVDD AVDD AVDD pfet_03v3 L=2U W=2U AS=0.84P AD=0.84P PS=2.84U
+ PD=2.84U
M$350 AVDD AVDD AVDD AVDD pfet_03v3 L=2U W=2U AS=0.84P AD=1.3P PS=2.84U PD=5.3U
M$351 AVDD AVDD AVDD AVDD pfet_03v3 L=2U W=2U AS=1.3P AD=1.3P PS=5.3U PD=5.3U
M$352 AVDD AVDD AVDD AVDD pfet_03v3 L=2U W=2U AS=1.3P AD=1.3P PS=5.3U PD=5.3U
M$353 AVDD AVDD AVDD AVDD pfet_03v3 L=2U W=2U AS=1.3P AD=0.84P PS=5.3U PD=2.84U
M$354 AVDD AVDD AVDD AVDD pfet_03v3 L=2U W=2U AS=0.84P AD=0.84P PS=2.84U
+ PD=2.84U
M$355 AVDD AVDD AVDD AVDD pfet_03v3 L=2U W=2U AS=0.84P AD=0.84P PS=2.84U
+ PD=2.84U
M$356 AVDD AVDD AVDD AVDD pfet_03v3 L=2U W=2U AS=0.84P AD=1.3P PS=2.84U PD=5.3U
M$357 AVDD AVDD AVDD AVDD pfet_03v3 L=2U W=2U AS=1.3P AD=0.84P PS=5.3U PD=2.84U
M$358 AVDD AVDD AVDD AVDD pfet_03v3 L=2U W=2U AS=0.84P AD=0.84P PS=2.84U
+ PD=2.84U
M$359 AVDD AVDD AVDD AVDD pfet_03v3 L=2U W=2U AS=0.84P AD=1.3P PS=2.84U PD=5.3U
M$360 AVDD AVDD AVDD AVDD pfet_03v3 L=2U W=2U AS=1.3P AD=0.84P PS=5.3U PD=2.84U
M$361 AVDD AVDD AVDD AVDD pfet_03v3 L=2U W=2U AS=0.84P AD=0.84P PS=2.84U
+ PD=2.84U
M$362 AVDD AVDD AVDD AVDD pfet_03v3 L=2U W=2U AS=0.84P AD=0.84P PS=2.84U
+ PD=2.84U
M$363 AVDD AVDD AVDD AVDD pfet_03v3 L=2U W=2U AS=0.84P AD=1.3P PS=2.84U PD=5.3U
M$364 AVDD AVDD AVDD AVDD pfet_03v3 L=2U W=2U AS=1.3P AD=1.3P PS=5.3U PD=5.3U
M$365 AVDD AVDD AVDD AVDD pfet_03v3 L=2U W=2U AS=1.3P AD=1.3P PS=5.3U PD=5.3U
M$366 \$179 VP \$13 AVDD pfet_03v3 L=2U W=2U AS=1.3P AD=0.84P PS=5.3U PD=2.84U
M$367 \$13 VP \$179 AVDD pfet_03v3 L=2U W=2U AS=0.84P AD=0.84P PS=2.84U PD=2.84U
M$368 \$179 VP \$13 AVDD pfet_03v3 L=2U W=2U AS=0.84P AD=0.84P PS=2.84U PD=2.84U
M$369 \$13 VP \$179 AVDD pfet_03v3 L=2U W=2U AS=0.84P AD=1.3P PS=2.84U PD=5.3U
M$370 \$179 VN \$14 AVDD pfet_03v3 L=2U W=2U AS=1.3P AD=0.84P PS=5.3U PD=2.84U
M$371 \$14 VN \$179 AVDD pfet_03v3 L=2U W=2U AS=0.84P AD=0.84P PS=2.84U PD=2.84U
M$372 \$179 VN \$14 AVDD pfet_03v3 L=2U W=2U AS=0.84P AD=1.3P PS=2.84U PD=5.3U