* Extracted by KLayout with GF180MCU LVS runset on : 23/12/2023 19:17

.SUBCKT FC_top IREF AVDD VOUT VP VN AVSS
M$1 AVDD AVDD AVDD AVDD pfet_03v3 L=2U W=2U AS=1.3P AD=1.3P PS=5.3U PD=5.3U
M$2 AVDD AVDD AVDD AVDD pfet_03v3 L=2U W=2U AS=1.3P AD=0.84P PS=5.3U PD=2.84U
M$3 AVDD AVDD AVDD AVDD pfet_03v3 L=2U W=2U AS=0.84P AD=0.84P PS=2.84U PD=2.84U
M$4 AVDD AVDD AVDD AVDD pfet_03v3 L=2U W=2U AS=0.84P AD=0.84P PS=2.84U PD=2.84U
M$5 AVDD AVDD AVDD AVDD pfet_03v3 L=2U W=2U AS=0.84P AD=1.3P PS=2.84U PD=5.3U
M$6 AVDD AVDD AVDD AVDD pfet_03v3 L=2U W=2U AS=1.3P AD=0.84P PS=5.3U PD=2.84U
M$7 AVDD AVDD AVDD AVDD pfet_03v3 L=2U W=2U AS=0.84P AD=0.84P PS=2.84U PD=2.84U
M$8 AVDD AVDD AVDD AVDD pfet_03v3 L=2U W=2U AS=0.84P AD=1.3P PS=2.84U PD=5.3U
M$9 AVDD AVDD AVDD AVDD pfet_03v3 L=2U W=2U AS=1.3P AD=0.84P PS=5.3U PD=2.84U
M$10 AVDD AVDD AVDD AVDD pfet_03v3 L=2U W=2U AS=0.84P AD=0.84P PS=2.84U PD=2.84U
M$11 AVDD AVDD AVDD AVDD pfet_03v3 L=2U W=2U AS=0.84P AD=0.84P PS=2.84U PD=2.84U
M$12 AVDD AVDD AVDD AVDD pfet_03v3 L=2U W=2U AS=0.84P AD=1.3P PS=2.84U PD=5.3U
M$13 AVDD AVDD AVDD AVDD pfet_03v3 L=2U W=2U AS=1.3P AD=1.3P PS=5.3U PD=5.3U
M$14 AVDD AVDD AVDD AVDD pfet_03v3 L=2U W=1.2U AS=0.78P AD=0.78P PS=3.7U PD=3.7U
M$15 AVDD AVDD AVDD AVDD pfet_03v3 L=2U W=1.2U AS=0.78P AD=0.504P PS=3.7U
+ PD=2.04U
M$16 AVDD AVDD AVDD AVDD pfet_03v3 L=2U W=1.2U AS=0.504P AD=0.504P PS=2.04U
+ PD=2.04U
M$17 AVDD AVDD AVDD AVDD pfet_03v3 L=2U W=1.2U AS=0.504P AD=0.78P PS=2.04U
+ PD=3.7U
M$18 AVDD AVDD AVDD AVDD pfet_03v3 L=2U W=1.2U AS=0.78P AD=0.78P PS=3.7U PD=3.7U
M$19 AVDD AVDD AVDD AVDD pfet_03v3 L=2U W=1.2U AS=0.78P AD=0.78P PS=3.7U PD=3.7U
M$20 AVDD AVDD AVDD AVDD pfet_03v3 L=2U W=2U AS=1.3P AD=1.3P PS=5.3U PD=5.3U
M$21 AVDD IREF IREF AVDD pfet_03v3 L=2U W=2U AS=1.3P AD=0.84P PS=5.3U PD=2.84U
M$22 IREF IREF AVDD AVDD pfet_03v3 L=2U W=2U AS=0.84P AD=0.84P PS=2.84U PD=2.84U
M$23 AVDD IREF IREF AVDD pfet_03v3 L=2U W=2U AS=0.84P AD=0.84P PS=2.84U PD=2.84U
M$24 IREF IREF AVDD AVDD pfet_03v3 L=2U W=2U AS=0.84P AD=1.3P PS=2.84U PD=5.3U
M$25 AVDD IREF \$56 AVDD pfet_03v3 L=2U W=2U AS=1.3P AD=0.84P PS=5.3U PD=2.84U
M$26 \$56 IREF AVDD AVDD pfet_03v3 L=2U W=2U AS=0.84P AD=0.84P PS=2.84U PD=2.84U
M$27 AVDD IREF \$56 AVDD pfet_03v3 L=2U W=2U AS=0.84P AD=1.3P PS=2.84U PD=5.3U
M$28 AVDD IREF IREF AVDD pfet_03v3 L=2U W=2U AS=1.3P AD=0.84P PS=5.3U PD=2.84U
M$29 IREF IREF AVDD AVDD pfet_03v3 L=2U W=2U AS=0.84P AD=0.84P PS=2.84U PD=2.84U
M$30 AVDD IREF IREF AVDD pfet_03v3 L=2U W=2U AS=0.84P AD=0.84P PS=2.84U PD=2.84U
M$31 IREF IREF AVDD AVDD pfet_03v3 L=2U W=2U AS=0.84P AD=1.3P PS=2.84U PD=5.3U
M$32 AVDD AVDD AVDD AVDD pfet_03v3 L=2U W=2U AS=1.3P AD=1.3P PS=5.3U PD=5.3U
M$33 AVDD AVDD AVDD AVDD pfet_03v3 L=2U W=1.2U AS=0.78P AD=0.78P PS=3.7U PD=3.7U
M$34 \$144 \$24 \$143 AVDD pfet_03v3 L=2U W=1.2U AS=0.78P AD=0.504P PS=3.7U
+ PD=2.04U
M$35 \$145 \$24 \$144 AVDD pfet_03v3 L=2U W=1.2U AS=0.504P AD=0.504P PS=2.04U
+ PD=2.04U
M$36 AVDD \$24 \$145 AVDD pfet_03v3 L=2U W=1.2U AS=0.504P AD=0.78P PS=2.04U
+ PD=3.7U
M$37 AVDD AVDD AVDD AVDD pfet_03v3 L=2U W=1.2U AS=0.78P AD=0.78P PS=3.7U PD=3.7U
M$38 AVDD AVDD AVDD AVDD pfet_03v3 L=2U W=1.2U AS=0.78P AD=0.78P PS=3.7U PD=3.7U
M$39 AVDD AVDD AVDD AVDD pfet_03v3 L=2U W=1.2U AS=0.78P AD=0.78P PS=3.7U PD=3.7U
M$40 AVDD AVDD AVDD AVDD pfet_03v3 L=2U W=1.2U AS=0.78P AD=0.78P PS=3.7U PD=3.7U
M$41 \$164 \$24 \$143 AVDD pfet_03v3 L=2U W=1.2U AS=0.78P AD=0.504P PS=3.7U
+ PD=2.04U
M$42 \$165 \$24 \$164 AVDD pfet_03v3 L=2U W=1.2U AS=0.504P AD=0.504P PS=2.04U
+ PD=2.04U
M$43 \$166 \$24 \$165 AVDD pfet_03v3 L=2U W=1.2U AS=0.504P AD=0.78P PS=2.04U
+ PD=3.7U
M$44 \$179 \$24 \$178 AVDD pfet_03v3 L=2U W=1.2U AS=0.78P AD=0.504P PS=3.7U
+ PD=2.04U
M$45 \$180 \$24 \$179 AVDD pfet_03v3 L=2U W=1.2U AS=0.504P AD=0.504P PS=2.04U
+ PD=2.04U
M$46 \$166 \$24 \$180 AVDD pfet_03v3 L=2U W=1.2U AS=0.504P AD=0.78P PS=2.04U
+ PD=3.7U
M$47 AVDD AVDD AVDD AVDD pfet_03v3 L=2U W=1.2U AS=0.78P AD=0.78P PS=3.7U PD=3.7U
M$48 AVDD AVDD AVDD AVDD pfet_03v3 L=2U W=1.2U AS=0.78P AD=0.78P PS=3.7U PD=3.7U
M$49 AVDD AVDD AVDD AVDD pfet_03v3 L=2U W=1.2U AS=0.78P AD=0.78P PS=3.7U PD=3.7U
M$50 AVDD AVDD AVDD AVDD pfet_03v3 L=2U W=1.2U AS=0.78P AD=0.78P PS=3.7U PD=3.7U
M$51 AVDD AVDD AVDD AVDD pfet_03v3 L=2U W=2U AS=1.3P AD=1.3P PS=5.3U PD=5.3U
M$52 AVDD IREF \$56 AVDD pfet_03v3 L=2U W=2U AS=1.3P AD=0.84P PS=5.3U PD=2.84U
M$53 \$56 IREF AVDD AVDD pfet_03v3 L=2U W=2U AS=0.84P AD=0.84P PS=2.84U PD=2.84U
M$54 AVDD IREF \$56 AVDD pfet_03v3 L=2U W=2U AS=0.84P AD=0.84P PS=2.84U PD=2.84U
M$55 \$56 IREF AVDD AVDD pfet_03v3 L=2U W=2U AS=0.84P AD=1.3P PS=2.84U PD=5.3U
M$56 \$30 IREF AVDD AVDD pfet_03v3 L=2U W=2U AS=1.3P AD=0.84P PS=5.3U PD=2.84U
M$57 AVDD IREF \$30 AVDD pfet_03v3 L=2U W=2U AS=0.84P AD=0.84P PS=2.84U PD=2.84U
M$58 \$30 IREF AVDD AVDD pfet_03v3 L=2U W=2U AS=0.84P AD=1.3P PS=2.84U PD=5.3U
M$59 AVDD IREF \$56 AVDD pfet_03v3 L=2U W=2U AS=1.3P AD=0.84P PS=5.3U PD=2.84U
M$60 \$56 IREF AVDD AVDD pfet_03v3 L=2U W=2U AS=0.84P AD=0.84P PS=2.84U PD=2.84U
M$61 AVDD IREF \$56 AVDD pfet_03v3 L=2U W=2U AS=0.84P AD=0.84P PS=2.84U PD=2.84U
M$62 \$56 IREF AVDD AVDD pfet_03v3 L=2U W=2U AS=0.84P AD=1.3P PS=2.84U PD=5.3U
M$63 AVDD AVDD AVDD AVDD pfet_03v3 L=2U W=2U AS=1.3P AD=1.3P PS=5.3U PD=5.3U
M$64 AVDD AVDD AVDD AVDD pfet_03v3 L=2U W=2U AS=1.3P AD=1.3P PS=5.3U PD=5.3U
M$65 AVDD IREF \$30 AVDD pfet_03v3 L=2U W=2U AS=1.3P AD=0.84P PS=5.3U PD=2.84U
M$66 \$30 IREF AVDD AVDD pfet_03v3 L=2U W=2U AS=0.84P AD=0.84P PS=2.84U PD=2.84U
M$67 AVDD IREF \$30 AVDD pfet_03v3 L=2U W=2U AS=0.84P AD=0.84P PS=2.84U PD=2.84U
M$68 \$30 IREF AVDD AVDD pfet_03v3 L=2U W=2U AS=0.84P AD=1.3P PS=2.84U PD=5.3U
M$69 AVDD IREF IREF AVDD pfet_03v3 L=2U W=2U AS=1.3P AD=0.84P PS=5.3U PD=2.84U
M$70 IREF IREF AVDD AVDD pfet_03v3 L=2U W=2U AS=0.84P AD=0.84P PS=2.84U PD=2.84U
M$71 AVDD IREF IREF AVDD pfet_03v3 L=2U W=2U AS=0.84P AD=1.3P PS=2.84U PD=5.3U
M$72 AVDD IREF \$30 AVDD pfet_03v3 L=2U W=2U AS=1.3P AD=0.84P PS=5.3U PD=2.84U
M$73 \$30 IREF AVDD AVDD pfet_03v3 L=2U W=2U AS=0.84P AD=0.84P PS=2.84U PD=2.84U
M$74 AVDD IREF \$30 AVDD pfet_03v3 L=2U W=2U AS=0.84P AD=0.84P PS=2.84U PD=2.84U
M$75 \$30 IREF AVDD AVDD pfet_03v3 L=2U W=2U AS=0.84P AD=1.3P PS=2.84U PD=5.3U
M$76 AVDD AVDD AVDD AVDD pfet_03v3 L=2U W=2U AS=1.3P AD=1.3P PS=5.3U PD=5.3U
M$77 AVDD AVDD AVDD AVDD pfet_03v3 L=2U W=1.2U AS=0.78P AD=0.78P PS=3.7U PD=3.7U
M$78 \$192 \$24 \$178 AVDD pfet_03v3 L=2U W=1.2U AS=0.78P AD=0.504P PS=3.7U
+ PD=2.04U
M$79 \$193 \$24 \$192 AVDD pfet_03v3 L=2U W=1.2U AS=0.504P AD=0.504P PS=2.04U
+ PD=2.04U
M$80 \$194 \$24 \$193 AVDD pfet_03v3 L=2U W=1.2U AS=0.504P AD=0.78P PS=2.04U
+ PD=3.7U
M$81 \$24 \$24 \$194 AVDD pfet_03v3 L=2U W=1.2U AS=0.78P AD=0.78P PS=3.7U
+ PD=3.7U
M$82 AVDD AVDD AVDD AVDD pfet_03v3 L=2U W=1.2U AS=0.78P AD=0.78P PS=3.7U PD=3.7U
M$83 AVDD AVDD AVDD AVDD pfet_03v3 L=2U W=2U AS=1.3P AD=1.3P PS=5.3U PD=5.3U
M$84 AVDD IREF \$30 AVDD pfet_03v3 L=2U W=2U AS=1.3P AD=0.84P PS=5.3U PD=2.84U
M$85 \$30 IREF AVDD AVDD pfet_03v3 L=2U W=2U AS=0.84P AD=0.84P PS=2.84U PD=2.84U
M$86 AVDD IREF \$30 AVDD pfet_03v3 L=2U W=2U AS=0.84P AD=0.84P PS=2.84U PD=2.84U
M$87 \$30 IREF AVDD AVDD pfet_03v3 L=2U W=2U AS=0.84P AD=1.3P PS=2.84U PD=5.3U
M$88 AVDD IREF IREF AVDD pfet_03v3 L=2U W=2U AS=1.3P AD=0.84P PS=5.3U PD=2.84U
M$89 IREF IREF AVDD AVDD pfet_03v3 L=2U W=2U AS=0.84P AD=0.84P PS=2.84U PD=2.84U
M$90 AVDD IREF IREF AVDD pfet_03v3 L=2U W=2U AS=0.84P AD=1.3P PS=2.84U PD=5.3U
M$91 AVDD IREF \$30 AVDD pfet_03v3 L=2U W=2U AS=1.3P AD=0.84P PS=5.3U PD=2.84U
M$92 \$30 IREF AVDD AVDD pfet_03v3 L=2U W=2U AS=0.84P AD=0.84P PS=2.84U PD=2.84U
M$93 AVDD IREF \$30 AVDD pfet_03v3 L=2U W=2U AS=0.84P AD=0.84P PS=2.84U PD=2.84U
M$94 \$30 IREF AVDD AVDD pfet_03v3 L=2U W=2U AS=0.84P AD=1.3P PS=2.84U PD=5.3U
M$95 AVDD AVDD AVDD AVDD pfet_03v3 L=2U W=2U AS=1.3P AD=1.3P PS=5.3U PD=5.3U
M$96 AVDD AVDD AVDD AVDD pfet_03v3 L=2U W=1.2U AS=0.78P AD=0.78P PS=3.7U PD=3.7U
M$97 AVDD AVDD AVDD AVDD pfet_03v3 L=2U W=1.2U AS=0.78P AD=0.504P PS=3.7U
+ PD=2.04U
M$98 AVDD AVDD AVDD AVDD pfet_03v3 L=2U W=1.2U AS=0.504P AD=0.504P PS=2.04U
+ PD=2.04U
M$99 AVDD AVDD AVDD AVDD pfet_03v3 L=2U W=1.2U AS=0.504P AD=0.78P PS=2.04U
+ PD=3.7U
M$100 AVDD AVDD AVDD AVDD pfet_03v3 L=2U W=1.2U AS=0.78P AD=0.78P PS=3.7U
+ PD=3.7U
M$101 AVDD AVDD AVDD AVDD pfet_03v3 L=2U W=1.2U AS=0.78P AD=0.78P PS=3.7U
+ PD=3.7U
M$102 AVDD AVDD AVDD AVDD pfet_03v3 L=2U W=2U AS=1.3P AD=1.3P PS=5.3U PD=5.3U
M$103 AVDD IREF \$56 AVDD pfet_03v3 L=2U W=2U AS=1.3P AD=0.84P PS=5.3U PD=2.84U
M$104 \$56 IREF AVDD AVDD pfet_03v3 L=2U W=2U AS=0.84P AD=0.84P PS=2.84U
+ PD=2.84U
M$105 AVDD IREF \$56 AVDD pfet_03v3 L=2U W=2U AS=0.84P AD=0.84P PS=2.84U
+ PD=2.84U
M$106 \$56 IREF AVDD AVDD pfet_03v3 L=2U W=2U AS=0.84P AD=1.3P PS=2.84U PD=5.3U
M$107 AVDD IREF \$30 AVDD pfet_03v3 L=2U W=2U AS=1.3P AD=0.84P PS=5.3U PD=2.84U
M$108 \$30 IREF AVDD AVDD pfet_03v3 L=2U W=2U AS=0.84P AD=0.84P PS=2.84U
+ PD=2.84U
M$109 AVDD IREF \$30 AVDD pfet_03v3 L=2U W=2U AS=0.84P AD=1.3P PS=2.84U PD=5.3U
M$110 AVDD IREF \$56 AVDD pfet_03v3 L=2U W=2U AS=1.3P AD=0.84P PS=5.3U PD=2.84U
M$111 \$56 IREF AVDD AVDD pfet_03v3 L=2U W=2U AS=0.84P AD=0.84P PS=2.84U
+ PD=2.84U
M$112 AVDD IREF \$56 AVDD pfet_03v3 L=2U W=2U AS=0.84P AD=0.84P PS=2.84U
+ PD=2.84U
M$113 \$56 IREF AVDD AVDD pfet_03v3 L=2U W=2U AS=0.84P AD=1.3P PS=2.84U PD=5.3U
M$114 AVDD AVDD AVDD AVDD pfet_03v3 L=2U W=2U AS=1.3P AD=1.3P PS=5.3U PD=5.3U
M$115 AVDD AVDD AVDD AVDD pfet_03v3 L=2U W=2U AS=1.3P AD=1.3P PS=5.3U PD=5.3U
M$116 AVDD IREF IREF AVDD pfet_03v3 L=2U W=2U AS=1.3P AD=0.84P PS=5.3U PD=2.84U
M$117 IREF IREF AVDD AVDD pfet_03v3 L=2U W=2U AS=0.84P AD=0.84P PS=2.84U
+ PD=2.84U
M$118 AVDD IREF IREF AVDD pfet_03v3 L=2U W=2U AS=0.84P AD=0.84P PS=2.84U
+ PD=2.84U
M$119 IREF IREF AVDD AVDD pfet_03v3 L=2U W=2U AS=0.84P AD=1.3P PS=2.84U PD=5.3U
M$120 \$56 IREF AVDD AVDD pfet_03v3 L=2U W=2U AS=1.3P AD=0.84P PS=5.3U PD=2.84U
M$121 AVDD IREF \$56 AVDD pfet_03v3 L=2U W=2U AS=0.84P AD=0.84P PS=2.84U
+ PD=2.84U
M$122 \$56 IREF AVDD AVDD pfet_03v3 L=2U W=2U AS=0.84P AD=1.3P PS=2.84U PD=5.3U
M$123 AVDD IREF IREF AVDD pfet_03v3 L=2U W=2U AS=1.3P AD=0.84P PS=5.3U PD=2.84U
M$124 IREF IREF AVDD AVDD pfet_03v3 L=2U W=2U AS=0.84P AD=0.84P PS=2.84U
+ PD=2.84U
M$125 AVDD IREF IREF AVDD pfet_03v3 L=2U W=2U AS=0.84P AD=0.84P PS=2.84U
+ PD=2.84U
M$126 IREF IREF AVDD AVDD pfet_03v3 L=2U W=2U AS=0.84P AD=1.3P PS=2.84U PD=5.3U
M$127 AVDD AVDD AVDD AVDD pfet_03v3 L=2U W=2U AS=1.3P AD=1.3P PS=5.3U PD=5.3U
M$128 AVDD AVDD AVDD AVDD pfet_03v3 L=2U W=2U AS=1.3P AD=1.3P PS=5.3U PD=5.3U
M$129 AVDD AVDD AVDD AVDD pfet_03v3 L=2U W=2U AS=1.3P AD=0.84P PS=5.3U PD=2.84U
M$130 AVDD AVDD AVDD AVDD pfet_03v3 L=2U W=2U AS=0.84P AD=0.84P PS=2.84U
+ PD=2.84U
M$131 AVDD AVDD AVDD AVDD pfet_03v3 L=2U W=2U AS=0.84P AD=0.84P PS=2.84U
+ PD=2.84U
M$132 AVDD AVDD AVDD AVDD pfet_03v3 L=2U W=2U AS=0.84P AD=1.3P PS=2.84U PD=5.3U
M$133 AVDD AVDD AVDD AVDD pfet_03v3 L=2U W=2U AS=1.3P AD=0.84P PS=5.3U PD=2.84U
M$134 AVDD AVDD AVDD AVDD pfet_03v3 L=2U W=2U AS=0.84P AD=0.84P PS=2.84U
+ PD=2.84U
M$135 AVDD AVDD AVDD AVDD pfet_03v3 L=2U W=2U AS=0.84P AD=1.3P PS=2.84U PD=5.3U
M$136 AVDD AVDD AVDD AVDD pfet_03v3 L=2U W=2U AS=1.3P AD=0.84P PS=5.3U PD=2.84U
M$137 AVDD AVDD AVDD AVDD pfet_03v3 L=2U W=2U AS=0.84P AD=0.84P PS=2.84U
+ PD=2.84U
M$138 AVDD AVDD AVDD AVDD pfet_03v3 L=2U W=2U AS=0.84P AD=0.84P PS=2.84U
+ PD=2.84U
M$139 AVDD AVDD AVDD AVDD pfet_03v3 L=2U W=2U AS=0.84P AD=1.3P PS=2.84U PD=5.3U
M$140 AVDD AVDD AVDD AVDD pfet_03v3 L=2U W=2U AS=1.3P AD=1.3P PS=5.3U PD=5.3U
M$141 AVDD AVDD AVDD AVDD pfet_03v3 L=2U W=2U AS=1.3P AD=1.3P PS=5.3U PD=5.3U
M$142 AVDD AVDD AVDD AVDD pfet_03v3 L=2U W=2U AS=1.3P AD=0.84P PS=5.3U PD=2.84U
M$143 AVDD AVDD AVDD AVDD pfet_03v3 L=2U W=2U AS=0.84P AD=0.84P PS=2.84U
+ PD=2.84U
M$144 AVDD AVDD AVDD AVDD pfet_03v3 L=2U W=2U AS=0.84P AD=0.84P PS=2.84U
+ PD=2.84U
M$145 AVDD AVDD AVDD AVDD pfet_03v3 L=2U W=2U AS=0.84P AD=1.3P PS=2.84U PD=5.3U
M$146 AVDD AVDD AVDD AVDD pfet_03v3 L=2U W=2U AS=1.3P AD=0.84P PS=5.3U PD=2.84U
M$147 AVDD AVDD AVDD AVDD pfet_03v3 L=2U W=2U AS=0.84P AD=0.84P PS=2.84U
+ PD=2.84U
M$148 AVDD AVDD AVDD AVDD pfet_03v3 L=2U W=2U AS=0.84P AD=1.3P PS=2.84U PD=5.3U
M$149 AVDD AVDD AVDD AVDD pfet_03v3 L=2U W=2U AS=1.3P AD=0.84P PS=5.3U PD=2.84U
M$150 AVDD AVDD AVDD AVDD pfet_03v3 L=2U W=2U AS=0.84P AD=0.84P PS=2.84U
+ PD=2.84U
M$151 AVDD AVDD AVDD AVDD pfet_03v3 L=2U W=2U AS=0.84P AD=0.84P PS=2.84U
+ PD=2.84U
M$152 AVDD AVDD AVDD AVDD pfet_03v3 L=2U W=2U AS=0.84P AD=1.3P PS=2.84U PD=5.3U
M$153 AVDD AVDD AVDD AVDD pfet_03v3 L=2U W=2U AS=1.3P AD=1.3P PS=5.3U PD=5.3U
M$154 AVDD AVDD AVDD AVDD pfet_03v3 L=2U W=2U AS=1.3P AD=1.3P PS=5.3U PD=5.3U
M$155 AVDD AVDD AVDD AVDD pfet_03v3 L=2U W=2U AS=1.3P AD=0.84P PS=5.3U PD=2.84U
M$156 AVDD AVDD AVDD AVDD pfet_03v3 L=2U W=2U AS=0.84P AD=0.84P PS=2.84U
+ PD=2.84U
M$157 AVDD AVDD AVDD AVDD pfet_03v3 L=2U W=2U AS=0.84P AD=0.84P PS=2.84U
+ PD=2.84U
M$158 AVDD AVDD AVDD AVDD pfet_03v3 L=2U W=2U AS=0.84P AD=1.3P PS=2.84U PD=5.3U
M$159 AVDD AVDD AVDD AVDD pfet_03v3 L=2U W=2U AS=1.3P AD=0.84P PS=5.3U PD=2.84U
M$160 AVDD AVDD AVDD AVDD pfet_03v3 L=2U W=2U AS=0.84P AD=0.84P PS=2.84U
+ PD=2.84U
M$161 AVDD AVDD AVDD AVDD pfet_03v3 L=2U W=2U AS=0.84P AD=1.3P PS=2.84U PD=5.3U
M$162 AVDD AVDD AVDD AVDD pfet_03v3 L=2U W=2U AS=1.3P AD=0.84P PS=5.3U PD=2.84U
M$163 AVDD AVDD AVDD AVDD pfet_03v3 L=2U W=2U AS=0.84P AD=0.84P PS=2.84U
+ PD=2.84U
M$164 AVDD AVDD AVDD AVDD pfet_03v3 L=2U W=2U AS=0.84P AD=0.84P PS=2.84U
+ PD=2.84U
M$165 AVDD AVDD AVDD AVDD pfet_03v3 L=2U W=2U AS=0.84P AD=1.3P PS=2.84U PD=5.3U
M$166 AVDD AVDD AVDD AVDD pfet_03v3 L=2U W=2U AS=1.3P AD=1.3P PS=5.3U PD=5.3U
M$167 AVDD AVDD AVDD AVDD pfet_03v3 L=2U W=2U AS=1.3P AD=1.3P PS=5.3U PD=5.3U
M$168 AVDD AVDD AVDD AVDD pfet_03v3 L=2U W=2U AS=1.3P AD=0.84P PS=5.3U PD=2.84U
M$169 AVDD AVDD AVDD AVDD pfet_03v3 L=2U W=2U AS=0.84P AD=0.84P PS=2.84U
+ PD=2.84U
M$170 AVDD AVDD AVDD AVDD pfet_03v3 L=2U W=2U AS=0.84P AD=0.84P PS=2.84U
+ PD=2.84U
M$171 AVDD AVDD AVDD AVDD pfet_03v3 L=2U W=2U AS=0.84P AD=1.3P PS=2.84U PD=5.3U
M$172 AVDD AVDD AVDD AVDD pfet_03v3 L=2U W=2U AS=1.3P AD=0.84P PS=5.3U PD=2.84U
M$173 AVDD AVDD AVDD AVDD pfet_03v3 L=2U W=2U AS=0.84P AD=0.84P PS=2.84U
+ PD=2.84U
M$174 AVDD AVDD AVDD AVDD pfet_03v3 L=2U W=2U AS=0.84P AD=1.3P PS=2.84U PD=5.3U
M$175 AVDD AVDD AVDD AVDD pfet_03v3 L=2U W=2U AS=1.3P AD=0.84P PS=5.3U PD=2.84U
M$176 AVDD AVDD AVDD AVDD pfet_03v3 L=2U W=2U AS=0.84P AD=0.84P PS=2.84U
+ PD=2.84U
M$177 AVDD AVDD AVDD AVDD pfet_03v3 L=2U W=2U AS=0.84P AD=0.84P PS=2.84U
+ PD=2.84U
M$178 AVDD AVDD AVDD AVDD pfet_03v3 L=2U W=2U AS=0.84P AD=1.3P PS=2.84U PD=5.3U
M$179 AVDD AVDD AVDD AVDD pfet_03v3 L=2U W=2U AS=1.3P AD=1.3P PS=5.3U PD=5.3U
M$180 AVDD AVDD AVDD AVDD pfet_03v3 L=2U W=2U AS=1.3P AD=1.3P PS=5.3U PD=5.3U
M$181 AVDD AVDD AVDD AVDD pfet_03v3 L=2U W=2U AS=1.3P AD=0.84P PS=5.3U PD=2.84U
M$182 AVDD AVDD AVDD AVDD pfet_03v3 L=2U W=2U AS=0.84P AD=0.84P PS=2.84U
+ PD=2.84U
M$183 AVDD AVDD AVDD AVDD pfet_03v3 L=2U W=2U AS=0.84P AD=0.84P PS=2.84U
+ PD=2.84U
M$184 AVDD AVDD AVDD AVDD pfet_03v3 L=2U W=2U AS=0.84P AD=1.3P PS=2.84U PD=5.3U
M$185 AVDD AVDD AVDD AVDD pfet_03v3 L=2U W=2U AS=1.3P AD=0.84P PS=5.3U PD=2.84U
M$186 AVDD AVDD AVDD AVDD pfet_03v3 L=2U W=2U AS=0.84P AD=0.84P PS=2.84U
+ PD=2.84U
M$187 AVDD AVDD AVDD AVDD pfet_03v3 L=2U W=2U AS=0.84P AD=1.3P PS=2.84U PD=5.3U
M$188 AVDD AVDD AVDD AVDD pfet_03v3 L=2U W=2U AS=1.3P AD=0.84P PS=5.3U PD=2.84U
M$189 AVDD AVDD AVDD AVDD pfet_03v3 L=2U W=2U AS=0.84P AD=0.84P PS=2.84U
+ PD=2.84U
M$190 AVDD AVDD AVDD AVDD pfet_03v3 L=2U W=2U AS=0.84P AD=0.84P PS=2.84U
+ PD=2.84U
M$191 AVDD AVDD AVDD AVDD pfet_03v3 L=2U W=2U AS=0.84P AD=1.3P PS=2.84U PD=5.3U
M$192 AVDD AVDD AVDD AVDD pfet_03v3 L=2U W=2U AS=1.3P AD=1.3P PS=5.3U PD=5.3U
M$193 AVDD AVDD AVDD AVDD pfet_03v3 L=2U W=2U AS=1.3P AD=1.3P PS=5.3U PD=5.3U
M$194 \$331 VP \$14 AVDD pfet_03v3 L=2U W=2U AS=1.3P AD=0.84P PS=5.3U PD=2.84U
M$195 \$14 VP \$331 AVDD pfet_03v3 L=2U W=2U AS=0.84P AD=0.84P PS=2.84U PD=2.84U
M$196 \$331 VP \$14 AVDD pfet_03v3 L=2U W=2U AS=0.84P AD=0.84P PS=2.84U PD=2.84U
M$197 \$14 VP \$331 AVDD pfet_03v3 L=2U W=2U AS=0.84P AD=1.3P PS=2.84U PD=5.3U
M$198 \$331 VN \$15 AVDD pfet_03v3 L=2U W=2U AS=1.3P AD=0.84P PS=5.3U PD=2.84U
M$199 \$15 VN \$331 AVDD pfet_03v3 L=2U W=2U AS=0.84P AD=0.84P PS=2.84U PD=2.84U
M$200 \$331 VN \$15 AVDD pfet_03v3 L=2U W=2U AS=0.84P AD=1.3P PS=2.84U PD=5.3U
M$201 \$331 VP \$14 AVDD pfet_03v3 L=2U W=2U AS=1.3P AD=0.84P PS=5.3U PD=2.84U
M$202 \$14 VP \$331 AVDD pfet_03v3 L=2U W=2U AS=0.84P AD=0.84P PS=2.84U PD=2.84U
M$203 \$331 VP \$14 AVDD pfet_03v3 L=2U W=2U AS=0.84P AD=0.84P PS=2.84U PD=2.84U
M$204 \$14 VP \$331 AVDD pfet_03v3 L=2U W=2U AS=0.84P AD=1.3P PS=2.84U PD=5.3U
M$205 AVDD AVDD AVDD AVDD pfet_03v3 L=2U W=2U AS=1.3P AD=1.3P PS=5.3U PD=5.3U
M$206 AVDD AVDD AVDD AVDD pfet_03v3 L=2U W=2U AS=1.3P AD=1.3P PS=5.3U PD=5.3U
M$207 \$331 VP \$14 AVDD pfet_03v3 L=2U W=2U AS=1.3P AD=0.84P PS=5.3U PD=2.84U
M$208 \$14 VP \$331 AVDD pfet_03v3 L=2U W=2U AS=0.84P AD=0.84P PS=2.84U PD=2.84U
M$209 \$331 VP \$14 AVDD pfet_03v3 L=2U W=2U AS=0.84P AD=0.84P PS=2.84U PD=2.84U
M$210 \$14 VP \$331 AVDD pfet_03v3 L=2U W=2U AS=0.84P AD=1.3P PS=2.84U PD=5.3U
M$211 \$331 VN \$15 AVDD pfet_03v3 L=2U W=2U AS=1.3P AD=0.84P PS=5.3U PD=2.84U
M$212 \$15 VN \$331 AVDD pfet_03v3 L=2U W=2U AS=0.84P AD=0.84P PS=2.84U PD=2.84U
M$213 \$331 VN \$15 AVDD pfet_03v3 L=2U W=2U AS=0.84P AD=1.3P PS=2.84U PD=5.3U
M$214 \$331 VP \$14 AVDD pfet_03v3 L=2U W=2U AS=1.3P AD=0.84P PS=5.3U PD=2.84U
M$215 \$14 VP \$331 AVDD pfet_03v3 L=2U W=2U AS=0.84P AD=0.84P PS=2.84U PD=2.84U
M$216 \$331 VP \$14 AVDD pfet_03v3 L=2U W=2U AS=0.84P AD=0.84P PS=2.84U PD=2.84U
M$217 \$14 VP \$331 AVDD pfet_03v3 L=2U W=2U AS=0.84P AD=1.3P PS=2.84U PD=5.3U
M$218 AVDD AVDD AVDD AVDD pfet_03v3 L=2U W=2U AS=1.3P AD=1.3P PS=5.3U PD=5.3U
M$219 AVDD AVDD AVDD AVDD pfet_03v3 L=2U W=2U AS=1.3P AD=1.3P PS=5.3U PD=5.3U
M$220 \$332 \$24 \$211 AVDD pfet_03v3 L=2U W=2U AS=1.3P AD=0.84P PS=5.3U
+ PD=2.84U
M$221 \$211 \$24 \$332 AVDD pfet_03v3 L=2U W=2U AS=0.84P AD=0.84P PS=2.84U
+ PD=2.84U
M$222 \$332 \$24 \$211 AVDD pfet_03v3 L=2U W=2U AS=0.84P AD=0.84P PS=2.84U
+ PD=2.84U
M$223 \$211 \$24 \$332 AVDD pfet_03v3 L=2U W=2U AS=0.84P AD=1.3P PS=2.84U
+ PD=5.3U
M$224 \$326 \$24 VOUT AVDD pfet_03v3 L=2U W=2U AS=1.3P AD=0.84P PS=5.3U PD=2.84U
M$225 VOUT \$24 \$326 AVDD pfet_03v3 L=2U W=2U AS=0.84P AD=0.84P PS=2.84U
+ PD=2.84U
M$226 \$326 \$24 VOUT AVDD pfet_03v3 L=2U W=2U AS=0.84P AD=1.3P PS=2.84U PD=5.3U
M$227 \$332 \$24 \$211 AVDD pfet_03v3 L=2U W=2U AS=1.3P AD=0.84P PS=5.3U
+ PD=2.84U
M$228 \$211 \$24 \$332 AVDD pfet_03v3 L=2U W=2U AS=0.84P AD=0.84P PS=2.84U
+ PD=2.84U
M$229 \$332 \$24 \$211 AVDD pfet_03v3 L=2U W=2U AS=0.84P AD=0.84P PS=2.84U
+ PD=2.84U
M$230 \$211 \$24 \$332 AVDD pfet_03v3 L=2U W=2U AS=0.84P AD=1.3P PS=2.84U
+ PD=5.3U
M$231 AVDD AVDD AVDD AVDD pfet_03v3 L=2U W=2U AS=1.3P AD=1.3P PS=5.3U PD=5.3U
M$232 AVDD AVDD AVDD AVDD pfet_03v3 L=2U W=2U AS=1.3P AD=1.3P PS=5.3U PD=5.3U
M$233 \$332 \$24 \$211 AVDD pfet_03v3 L=2U W=2U AS=1.3P AD=0.84P PS=5.3U
+ PD=2.84U
M$234 \$211 \$24 \$332 AVDD pfet_03v3 L=2U W=2U AS=0.84P AD=0.84P PS=2.84U
+ PD=2.84U
M$235 \$332 \$24 \$211 AVDD pfet_03v3 L=2U W=2U AS=0.84P AD=0.84P PS=2.84U
+ PD=2.84U
M$236 \$211 \$24 \$332 AVDD pfet_03v3 L=2U W=2U AS=0.84P AD=1.3P PS=2.84U
+ PD=5.3U
M$237 \$326 \$24 VOUT AVDD pfet_03v3 L=2U W=2U AS=1.3P AD=0.84P PS=5.3U PD=2.84U
M$238 VOUT \$24 \$326 AVDD pfet_03v3 L=2U W=2U AS=0.84P AD=0.84P PS=2.84U
+ PD=2.84U
M$239 \$326 \$24 VOUT AVDD pfet_03v3 L=2U W=2U AS=0.84P AD=1.3P PS=2.84U PD=5.3U
M$240 \$332 \$24 \$211 AVDD pfet_03v3 L=2U W=2U AS=1.3P AD=0.84P PS=5.3U
+ PD=2.84U
M$241 \$211 \$24 \$332 AVDD pfet_03v3 L=2U W=2U AS=0.84P AD=0.84P PS=2.84U
+ PD=2.84U
M$242 \$332 \$24 \$211 AVDD pfet_03v3 L=2U W=2U AS=0.84P AD=0.84P PS=2.84U
+ PD=2.84U
M$243 \$211 \$24 \$332 AVDD pfet_03v3 L=2U W=2U AS=0.84P AD=1.3P PS=2.84U
+ PD=5.3U
M$244 AVDD AVDD AVDD AVDD pfet_03v3 L=2U W=2U AS=1.3P AD=1.3P PS=5.3U PD=5.3U
M$245 AVDD AVDD AVDD AVDD pfet_03v3 L=2U W=2U AS=1.3P AD=1.3P PS=5.3U PD=5.3U
M$246 \$331 VN \$15 AVDD pfet_03v3 L=2U W=2U AS=1.3P AD=0.84P PS=5.3U PD=2.84U
M$247 \$15 VN \$331 AVDD pfet_03v3 L=2U W=2U AS=0.84P AD=0.84P PS=2.84U PD=2.84U
M$248 \$331 VN \$15 AVDD pfet_03v3 L=2U W=2U AS=0.84P AD=0.84P PS=2.84U PD=2.84U
M$249 \$15 VN \$331 AVDD pfet_03v3 L=2U W=2U AS=0.84P AD=1.3P PS=2.84U PD=5.3U
M$250 \$14 VP \$331 AVDD pfet_03v3 L=2U W=2U AS=1.3P AD=0.84P PS=5.3U PD=2.84U
M$251 \$331 VP \$14 AVDD pfet_03v3 L=2U W=2U AS=0.84P AD=0.84P PS=2.84U PD=2.84U
M$252 \$14 VP \$331 AVDD pfet_03v3 L=2U W=2U AS=0.84P AD=1.3P PS=2.84U PD=5.3U
M$253 \$331 VN \$15 AVDD pfet_03v3 L=2U W=2U AS=1.3P AD=0.84P PS=5.3U PD=2.84U
M$254 \$15 VN \$331 AVDD pfet_03v3 L=2U W=2U AS=0.84P AD=0.84P PS=2.84U PD=2.84U
M$255 \$331 VN \$15 AVDD pfet_03v3 L=2U W=2U AS=0.84P AD=0.84P PS=2.84U PD=2.84U
M$256 \$15 VN \$331 AVDD pfet_03v3 L=2U W=2U AS=0.84P AD=1.3P PS=2.84U PD=5.3U
M$257 AVDD AVDD AVDD AVDD pfet_03v3 L=2U W=2U AS=1.3P AD=1.3P PS=5.3U PD=5.3U
M$258 AVDD AVDD AVDD AVDD pfet_03v3 L=2U W=2U AS=1.3P AD=1.3P PS=5.3U PD=5.3U
M$259 \$331 VN \$15 AVDD pfet_03v3 L=2U W=2U AS=1.3P AD=0.84P PS=5.3U PD=2.84U
M$260 \$15 VN \$331 AVDD pfet_03v3 L=2U W=2U AS=0.84P AD=0.84P PS=2.84U PD=2.84U
M$261 \$331 VN \$15 AVDD pfet_03v3 L=2U W=2U AS=0.84P AD=0.84P PS=2.84U PD=2.84U
M$262 \$15 VN \$331 AVDD pfet_03v3 L=2U W=2U AS=0.84P AD=1.3P PS=2.84U PD=5.3U
M$263 \$14 VP \$331 AVDD pfet_03v3 L=2U W=2U AS=1.3P AD=0.84P PS=5.3U PD=2.84U
M$264 \$331 VP \$14 AVDD pfet_03v3 L=2U W=2U AS=0.84P AD=0.84P PS=2.84U PD=2.84U
M$265 \$14 VP \$331 AVDD pfet_03v3 L=2U W=2U AS=0.84P AD=1.3P PS=2.84U PD=5.3U
M$266 \$331 VN \$15 AVDD pfet_03v3 L=2U W=2U AS=1.3P AD=0.84P PS=5.3U PD=2.84U
M$267 \$15 VN \$331 AVDD pfet_03v3 L=2U W=2U AS=0.84P AD=0.84P PS=2.84U PD=2.84U
M$268 \$331 VN \$15 AVDD pfet_03v3 L=2U W=2U AS=0.84P AD=0.84P PS=2.84U PD=2.84U
M$269 \$15 VN \$331 AVDD pfet_03v3 L=2U W=2U AS=0.84P AD=1.3P PS=2.84U PD=5.3U
M$270 AVDD AVDD AVDD AVDD pfet_03v3 L=2U W=2U AS=1.3P AD=1.3P PS=5.3U PD=5.3U
M$271 AVDD AVDD AVDD AVDD pfet_03v3 L=2U W=2U AS=1.3P AD=1.3P PS=5.3U PD=5.3U
M$272 \$326 \$24 VOUT AVDD pfet_03v3 L=2U W=2U AS=1.3P AD=0.84P PS=5.3U PD=2.84U
M$273 VOUT \$24 \$326 AVDD pfet_03v3 L=2U W=2U AS=0.84P AD=0.84P PS=2.84U
+ PD=2.84U
M$274 \$326 \$24 VOUT AVDD pfet_03v3 L=2U W=2U AS=0.84P AD=0.84P PS=2.84U
+ PD=2.84U
M$275 VOUT \$24 \$326 AVDD pfet_03v3 L=2U W=2U AS=0.84P AD=1.3P PS=2.84U PD=5.3U
M$276 \$211 \$24 \$332 AVDD pfet_03v3 L=2U W=2U AS=1.3P AD=0.84P PS=5.3U
+ PD=2.84U
M$277 \$332 \$24 \$211 AVDD pfet_03v3 L=2U W=2U AS=0.84P AD=0.84P PS=2.84U
+ PD=2.84U
M$278 \$211 \$24 \$332 AVDD pfet_03v3 L=2U W=2U AS=0.84P AD=1.3P PS=2.84U
+ PD=5.3U
M$279 \$326 \$24 VOUT AVDD pfet_03v3 L=2U W=2U AS=1.3P AD=0.84P PS=5.3U PD=2.84U
M$280 VOUT \$24 \$326 AVDD pfet_03v3 L=2U W=2U AS=0.84P AD=0.84P PS=2.84U
+ PD=2.84U
M$281 \$326 \$24 VOUT AVDD pfet_03v3 L=2U W=2U AS=0.84P AD=0.84P PS=2.84U
+ PD=2.84U
M$282 VOUT \$24 \$326 AVDD pfet_03v3 L=2U W=2U AS=0.84P AD=1.3P PS=2.84U PD=5.3U
M$283 AVDD AVDD AVDD AVDD pfet_03v3 L=2U W=2U AS=1.3P AD=1.3P PS=5.3U PD=5.3U
M$284 AVDD AVDD AVDD AVDD pfet_03v3 L=2U W=2U AS=1.3P AD=1.3P PS=5.3U PD=5.3U
M$285 \$326 \$24 VOUT AVDD pfet_03v3 L=2U W=2U AS=1.3P AD=0.84P PS=5.3U PD=2.84U
M$286 VOUT \$24 \$326 AVDD pfet_03v3 L=2U W=2U AS=0.84P AD=0.84P PS=2.84U
+ PD=2.84U
M$287 \$326 \$24 VOUT AVDD pfet_03v3 L=2U W=2U AS=0.84P AD=0.84P PS=2.84U
+ PD=2.84U
M$288 VOUT \$24 \$326 AVDD pfet_03v3 L=2U W=2U AS=0.84P AD=1.3P PS=2.84U PD=5.3U
M$289 \$211 \$24 \$332 AVDD pfet_03v3 L=2U W=2U AS=1.3P AD=0.84P PS=5.3U
+ PD=2.84U
M$290 \$332 \$24 \$211 AVDD pfet_03v3 L=2U W=2U AS=0.84P AD=0.84P PS=2.84U
+ PD=2.84U
M$291 \$211 \$24 \$332 AVDD pfet_03v3 L=2U W=2U AS=0.84P AD=1.3P PS=2.84U
+ PD=5.3U
M$292 \$326 \$24 VOUT AVDD pfet_03v3 L=2U W=2U AS=1.3P AD=0.84P PS=5.3U PD=2.84U
M$293 VOUT \$24 \$326 AVDD pfet_03v3 L=2U W=2U AS=0.84P AD=0.84P PS=2.84U
+ PD=2.84U
M$294 \$326 \$24 VOUT AVDD pfet_03v3 L=2U W=2U AS=0.84P AD=0.84P PS=2.84U
+ PD=2.84U
M$295 VOUT \$24 \$326 AVDD pfet_03v3 L=2U W=2U AS=0.84P AD=1.3P PS=2.84U PD=5.3U
M$296 AVDD AVDD AVDD AVDD pfet_03v3 L=2U W=2U AS=1.3P AD=1.3P PS=5.3U PD=5.3U
M$297 AVDD AVDD AVDD AVDD pfet_03v3 L=2U W=2U AS=1.3P AD=1.3P PS=5.3U PD=5.3U
M$298 \$331 VN \$15 AVDD pfet_03v3 L=2U W=2U AS=1.3P AD=0.84P PS=5.3U PD=2.84U
M$299 \$15 VN \$331 AVDD pfet_03v3 L=2U W=2U AS=0.84P AD=0.84P PS=2.84U PD=2.84U
M$300 \$331 VN \$15 AVDD pfet_03v3 L=2U W=2U AS=0.84P AD=0.84P PS=2.84U PD=2.84U
M$301 \$15 VN \$331 AVDD pfet_03v3 L=2U W=2U AS=0.84P AD=1.3P PS=2.84U PD=5.3U
M$302 \$14 VP \$331 AVDD pfet_03v3 L=2U W=2U AS=1.3P AD=0.84P PS=5.3U PD=2.84U
M$303 \$331 VP \$14 AVDD pfet_03v3 L=2U W=2U AS=0.84P AD=0.84P PS=2.84U PD=2.84U
M$304 \$14 VP \$331 AVDD pfet_03v3 L=2U W=2U AS=0.84P AD=1.3P PS=2.84U PD=5.3U
M$305 \$331 VN \$15 AVDD pfet_03v3 L=2U W=2U AS=1.3P AD=0.84P PS=5.3U PD=2.84U
M$306 \$15 VN \$331 AVDD pfet_03v3 L=2U W=2U AS=0.84P AD=0.84P PS=2.84U PD=2.84U
M$307 \$331 VN \$15 AVDD pfet_03v3 L=2U W=2U AS=0.84P AD=0.84P PS=2.84U PD=2.84U
M$308 \$15 VN \$331 AVDD pfet_03v3 L=2U W=2U AS=0.84P AD=1.3P PS=2.84U PD=5.3U
M$309 AVDD AVDD AVDD AVDD pfet_03v3 L=2U W=2U AS=1.3P AD=1.3P PS=5.3U PD=5.3U
M$310 AVDD AVDD AVDD AVDD pfet_03v3 L=2U W=2U AS=1.3P AD=1.3P PS=5.3U PD=5.3U
M$311 \$331 VN \$15 AVDD pfet_03v3 L=2U W=2U AS=1.3P AD=0.84P PS=5.3U PD=2.84U
M$312 \$15 VN \$331 AVDD pfet_03v3 L=2U W=2U AS=0.84P AD=0.84P PS=2.84U PD=2.84U
M$313 \$331 VN \$15 AVDD pfet_03v3 L=2U W=2U AS=0.84P AD=0.84P PS=2.84U PD=2.84U
M$314 \$15 VN \$331 AVDD pfet_03v3 L=2U W=2U AS=0.84P AD=1.3P PS=2.84U PD=5.3U
M$315 \$14 VP \$331 AVDD pfet_03v3 L=2U W=2U AS=1.3P AD=0.84P PS=5.3U PD=2.84U
M$316 \$331 VP \$14 AVDD pfet_03v3 L=2U W=2U AS=0.84P AD=0.84P PS=2.84U PD=2.84U
M$317 \$14 VP \$331 AVDD pfet_03v3 L=2U W=2U AS=0.84P AD=1.3P PS=2.84U PD=5.3U
M$318 \$331 VN \$15 AVDD pfet_03v3 L=2U W=2U AS=1.3P AD=0.84P PS=5.3U PD=2.84U
M$319 \$15 VN \$331 AVDD pfet_03v3 L=2U W=2U AS=0.84P AD=0.84P PS=2.84U PD=2.84U
M$320 \$331 VN \$15 AVDD pfet_03v3 L=2U W=2U AS=0.84P AD=0.84P PS=2.84U PD=2.84U
M$321 \$15 VN \$331 AVDD pfet_03v3 L=2U W=2U AS=0.84P AD=1.3P PS=2.84U PD=5.3U
M$322 AVDD AVDD AVDD AVDD pfet_03v3 L=2U W=2U AS=1.3P AD=1.3P PS=5.3U PD=5.3U
M$323 AVDD AVDD AVDD AVDD pfet_03v3 L=2U W=2U AS=1.3P AD=1.3P PS=5.3U PD=5.3U
M$324 \$326 \$24 VOUT AVDD pfet_03v3 L=2U W=2U AS=1.3P AD=0.84P PS=5.3U PD=2.84U
M$325 VOUT \$24 \$326 AVDD pfet_03v3 L=2U W=2U AS=0.84P AD=0.84P PS=2.84U
+ PD=2.84U
M$326 \$326 \$24 VOUT AVDD pfet_03v3 L=2U W=2U AS=0.84P AD=0.84P PS=2.84U
+ PD=2.84U
M$327 VOUT \$24 \$326 AVDD pfet_03v3 L=2U W=2U AS=0.84P AD=1.3P PS=2.84U PD=5.3U
M$328 \$211 \$24 \$332 AVDD pfet_03v3 L=2U W=2U AS=1.3P AD=0.84P PS=5.3U
+ PD=2.84U
M$329 \$332 \$24 \$211 AVDD pfet_03v3 L=2U W=2U AS=0.84P AD=0.84P PS=2.84U
+ PD=2.84U
M$330 \$211 \$24 \$332 AVDD pfet_03v3 L=2U W=2U AS=0.84P AD=1.3P PS=2.84U
+ PD=5.3U
M$331 \$326 \$24 VOUT AVDD pfet_03v3 L=2U W=2U AS=1.3P AD=0.84P PS=5.3U PD=2.84U
M$332 VOUT \$24 \$326 AVDD pfet_03v3 L=2U W=2U AS=0.84P AD=0.84P PS=2.84U
+ PD=2.84U
M$333 \$326 \$24 VOUT AVDD pfet_03v3 L=2U W=2U AS=0.84P AD=0.84P PS=2.84U
+ PD=2.84U
M$334 VOUT \$24 \$326 AVDD pfet_03v3 L=2U W=2U AS=0.84P AD=1.3P PS=2.84U PD=5.3U
M$335 AVDD AVDD AVDD AVDD pfet_03v3 L=2U W=2U AS=1.3P AD=1.3P PS=5.3U PD=5.3U
M$336 AVDD AVDD AVDD AVDD pfet_03v3 L=2U W=2U AS=1.3P AD=1.3P PS=5.3U PD=5.3U
M$337 \$326 \$24 VOUT AVDD pfet_03v3 L=2U W=2U AS=1.3P AD=0.84P PS=5.3U PD=2.84U
M$338 VOUT \$24 \$326 AVDD pfet_03v3 L=2U W=2U AS=0.84P AD=0.84P PS=2.84U
+ PD=2.84U
M$339 \$326 \$24 VOUT AVDD pfet_03v3 L=2U W=2U AS=0.84P AD=0.84P PS=2.84U
+ PD=2.84U
M$340 VOUT \$24 \$326 AVDD pfet_03v3 L=2U W=2U AS=0.84P AD=1.3P PS=2.84U PD=5.3U
M$341 \$211 \$24 \$332 AVDD pfet_03v3 L=2U W=2U AS=1.3P AD=0.84P PS=5.3U
+ PD=2.84U
M$342 \$332 \$24 \$211 AVDD pfet_03v3 L=2U W=2U AS=0.84P AD=0.84P PS=2.84U
+ PD=2.84U
M$343 \$211 \$24 \$332 AVDD pfet_03v3 L=2U W=2U AS=0.84P AD=1.3P PS=2.84U
+ PD=5.3U
M$344 \$326 \$24 VOUT AVDD pfet_03v3 L=2U W=2U AS=1.3P AD=0.84P PS=5.3U PD=2.84U
M$345 VOUT \$24 \$326 AVDD pfet_03v3 L=2U W=2U AS=0.84P AD=0.84P PS=2.84U
+ PD=2.84U
M$346 \$326 \$24 VOUT AVDD pfet_03v3 L=2U W=2U AS=0.84P AD=0.84P PS=2.84U
+ PD=2.84U
M$347 VOUT \$24 \$326 AVDD pfet_03v3 L=2U W=2U AS=0.84P AD=1.3P PS=2.84U PD=5.3U
M$348 AVDD AVDD AVDD AVDD pfet_03v3 L=2U W=2U AS=1.3P AD=1.3P PS=5.3U PD=5.3U
M$349 AVDD AVDD AVDD AVDD pfet_03v3 L=2U W=2U AS=1.3P AD=1.3P PS=5.3U PD=5.3U
M$350 \$331 VP \$14 AVDD pfet_03v3 L=2U W=2U AS=1.3P AD=0.84P PS=5.3U PD=2.84U
M$351 \$14 VP \$331 AVDD pfet_03v3 L=2U W=2U AS=0.84P AD=0.84P PS=2.84U PD=2.84U
M$352 \$331 VP \$14 AVDD pfet_03v3 L=2U W=2U AS=0.84P AD=0.84P PS=2.84U PD=2.84U
M$353 \$14 VP \$331 AVDD pfet_03v3 L=2U W=2U AS=0.84P AD=1.3P PS=2.84U PD=5.3U
M$354 \$15 VN \$331 AVDD pfet_03v3 L=2U W=2U AS=1.3P AD=0.84P PS=5.3U PD=2.84U
M$355 \$331 VN \$15 AVDD pfet_03v3 L=2U W=2U AS=0.84P AD=0.84P PS=2.84U PD=2.84U
M$356 \$15 VN \$331 AVDD pfet_03v3 L=2U W=2U AS=0.84P AD=1.3P PS=2.84U PD=5.3U
M$357 \$331 VP \$14 AVDD pfet_03v3 L=2U W=2U AS=1.3P AD=0.84P PS=5.3U PD=2.84U
M$358 \$14 VP \$331 AVDD pfet_03v3 L=2U W=2U AS=0.84P AD=0.84P PS=2.84U PD=2.84U
M$359 \$331 VP \$14 AVDD pfet_03v3 L=2U W=2U AS=0.84P AD=0.84P PS=2.84U PD=2.84U
M$360 \$14 VP \$331 AVDD pfet_03v3 L=2U W=2U AS=0.84P AD=1.3P PS=2.84U PD=5.3U
M$361 AVDD AVDD AVDD AVDD pfet_03v3 L=2U W=2U AS=1.3P AD=1.3P PS=5.3U PD=5.3U
M$362 AVDD AVDD AVDD AVDD pfet_03v3 L=2U W=2U AS=1.3P AD=1.3P PS=5.3U PD=5.3U
M$363 \$331 VP \$14 AVDD pfet_03v3 L=2U W=2U AS=1.3P AD=0.84P PS=5.3U PD=2.84U
M$364 \$14 VP \$331 AVDD pfet_03v3 L=2U W=2U AS=0.84P AD=0.84P PS=2.84U PD=2.84U
M$365 \$331 VP \$14 AVDD pfet_03v3 L=2U W=2U AS=0.84P AD=0.84P PS=2.84U PD=2.84U
M$366 \$14 VP \$331 AVDD pfet_03v3 L=2U W=2U AS=0.84P AD=1.3P PS=2.84U PD=5.3U
M$367 \$15 VN \$331 AVDD pfet_03v3 L=2U W=2U AS=1.3P AD=0.84P PS=5.3U PD=2.84U
M$368 \$331 VN \$15 AVDD pfet_03v3 L=2U W=2U AS=0.84P AD=0.84P PS=2.84U PD=2.84U