* NGSPICE file created from SAR_Logic.ext - technology: gf180mcuD

.subckt SAR_Logic VSSD VDDD D clks CK11 CK10 CK9 CK8 CK7 CK6 CK5 CK4 CK3 CK2 CK1
X0 a_99210_19028.t0 a_98226_19028.t4 a_99210_20288# VDDD.t13 pfet_03v3 ad=2.535p pd=9.1u as=2.535p ps=9.1u w=3.9u l=0.28u
X1 a_60418_19028.t2 a_59294_19028# a_60418_20288# VDDD.t169 pfet_03v3 ad=2.535p pd=9.1u as=2.535p ps=9.1u w=3.9u l=0.28u
X2 a_126982_19260.t0 a_126162_19260.t2 VDDD.t215 VDDD.t214 pfet_03v3 ad=2.535p pd=9.1u as=2.535p ps=9.1u w=3.9u l=0.28u
X3 a_45418_19028.t4 clks.t0 VSSD.t157 VSSD.t156 nfet_03v3 ad=0.9516p pd=4.34u as=0.9516p ps=4.34u w=1.56u l=0.28u
X4 VSSD.t205 Set a_32058_19028.t1 VSSD.t204 nfet_03v3 ad=0.9516p pd=4.34u as=0.9516p ps=4.34u w=1.56u l=0.28u
X5 VSSD.t15 a_119294_19028# a_120418_19028.t1 VSSD.t14 nfet_03v3 ad=0.9516p pd=4.34u as=0.9516p ps=4.34u w=1.56u l=0.28u
X6 a_10838_19028.t1 clks.t1 a_10838_20288# VDDD.t57 pfet_03v3 ad=2.535p pd=9.1u as=2.535p ps=9.1u w=3.9u l=0.28u
X7 a_130838_20288# a_129210_19028.t5 VDDD.t116 VDDD.t115 pfet_03v3 ad=2.535p pd=9.1u as=2.535p ps=9.1u w=3.9u l=0.28u
X8 VSSD.t251 a_n706_19028# a_418_19028.t3 VSSD.t250 nfet_03v3 ad=0.9516p pd=4.34u as=0.9516p ps=4.34u w=1.56u l=0.28u
X9 a_49862_19260# a_45418_19028.t5 VDDD.t230 VDDD.t229 pfet_03v3 ad=2.535p pd=9.1u as=2.535p ps=9.1u w=3.9u l=0.28u
X10 a_59294_19028# a_51982_19260.t2 a_62058_19028.t0 VDDD.t85 pfet_03v3 ad=2.535p pd=9.1u as=2.535p ps=9.1u w=3.9u l=0.28u
X11 a_128226_19028.t0 a_126982_19260.t2 a_120418_19028.t2 VDDD.t3 pfet_03v3 ad=2.535p pd=9.1u as=2.535p ps=9.1u w=3.9u l=0.28u
X12 VSSD.t276 a_74294_19028# a_75418_19028.t4 VSSD.t275 nfet_03v3 ad=0.9516p pd=4.34u as=0.9516p ps=4.34u w=1.56u l=0.28u
X13 a_n6774_19028.t3 a_n8838_19260.t2 a_n4162_19028.t4 VDDD.t88 pfet_03v3 ad=2.535p pd=9.1u as=2.535p ps=9.1u w=3.9u l=0.28u
X14 a_n706_19028# a_n8018_19260.t2 a_2058_19028.t4 VDDD.t111 pfet_03v3 ad=2.535p pd=9.1u as=2.535p ps=9.1u w=3.9u l=0.28u
X15 a_85838_20288# a_84210_19028.t5 VDDD.t174 VDDD.t173 pfet_03v3 ad=2.535p pd=9.1u as=2.535p ps=9.1u w=3.9u l=0.28u
X16 a_119294_19028# a_111162_19260.t2 a_122058_19028.t0 VSSD.t277 nfet_03v3 ad=0.9516p pd=4.34u as=0.9516p ps=4.34u w=1.56u l=0.28u
X17 a_n6774_19028.t1 a_n8018_19260.t3 D.t1 VDDD.t112 pfet_03v3 ad=2.535p pd=9.1u as=2.535p ps=9.1u w=3.9u l=0.28u
X18 a_51162_19260.t0 Valid VDDD.t52 VDDD.t51 pfet_03v3 ad=2.535p pd=9.1u as=2.535p ps=9.1u w=3.9u l=0.28u
X19 VSSD.t155 clks.t2 a_25838_19028.t1 VSSD.t154 nfet_03v3 ad=0.9516p pd=4.34u as=0.9516p ps=4.34u w=1.56u l=0.28u
X20 a_145838_19028.t0 a_144210_19028.t5 VSSD.t74 VSSD.t73 nfet_03v3 ad=0.9516p pd=4.34u as=0.9516p ps=4.34u w=1.56u l=0.28u
X21 a_111982_19260.t1 a_111162_19260.t3 VSSD.t100 VSSD.t99 nfet_03v3 ad=0.9516p pd=4.34u as=0.9516p ps=4.34u w=1.56u l=0.28u
X22 a_44294_19028# a_36982_19260.t2 a_39210_19028.t0 VSSD.t109 nfet_03v3 ad=0.9516p pd=4.34u as=0.9516p ps=4.34u w=1.56u l=0.28u
X23 a_54210_19028.t4 Set VSSD.t203 VSSD.t202 nfet_03v3 ad=0.9516p pd=4.34u as=0.9516p ps=4.34u w=1.56u l=0.28u
X24 a_74294_19028# a_66162_19260.t2 a_77058_19028.t0 VSSD.t233 nfet_03v3 ad=0.9516p pd=4.34u as=0.9516p ps=4.34u w=1.56u l=0.28u
X25 a_66982_19260.t1 a_66162_19260.t3 VSSD.t235 VSSD.t234 nfet_03v3 ad=0.9516p pd=4.34u as=0.9516p ps=4.34u w=1.56u l=0.28u
X26 a_45418_20288# clks.t3 VDDD.t59 VDDD.t58 pfet_03v3 ad=2.535p pd=9.1u as=2.535p ps=9.1u w=3.9u l=0.28u
X27 a_6982_19260.t1 a_6162_19260.t2 VSSD.t237 VSSD.t236 nfet_03v3 ad=0.9516p pd=4.34u as=0.9516p ps=4.34u w=1.56u l=0.28u
X28 a_34862_19260# a_30418_19028.t5 VSSD.t283 VSSD.t282 nfet_03v3 ad=0.9516p pd=4.34u as=0.9516p ps=4.34u w=1.56u l=0.28u
X29 a_17058_19028.t4 a_15418_19028.t5 VSSD.t262 VSSD.t261 nfet_03v3 ad=0.9516p pd=4.34u as=0.9516p ps=4.34u w=1.56u l=0.28u
X30 a_32058_19028.t2 Set a_32058_20288# VDDD.t162 pfet_03v3 ad=2.535p pd=9.1u as=2.535p ps=9.1u w=3.9u l=0.28u
X31 a_120418_19028.t0 a_119294_19028# a_120418_20288# VDDD.t17 pfet_03v3 ad=2.535p pd=9.1u as=2.535p ps=9.1u w=3.9u l=0.28u
X32 a_105418_19028.t4 clks.t4 VSSD.t153 VSSD.t152 nfet_03v3 ad=0.9516p pd=4.34u as=0.9516p ps=4.34u w=1.56u l=0.28u
X33 a_418_19028.t2 a_n706_19028# a_418_20288# VDDD.t203 pfet_03v3 ad=2.535p pd=9.1u as=2.535p ps=9.1u w=3.9u l=0.28u
X34 a_8226_19028.t0 a_6982_19260.t2 a_10838_19028.t4 VSSD.t272 nfet_03v3 ad=0.9516p pd=4.34u as=0.9516p ps=4.34u w=1.56u l=0.28u
X35 a_75418_19028.t3 a_74294_19028# a_75418_20288# VDDD.t234 pfet_03v3 ad=2.535p pd=9.1u as=2.535p ps=9.1u w=3.9u l=0.28u
X36 a_109862_19260# a_105418_19028.t5 VDDD.t219 VDDD.t218 pfet_03v3 ad=2.535p pd=9.1u as=2.535p ps=9.1u w=3.9u l=0.28u
X37 a_119294_19028# a_111982_19260.t2 a_122058_19028.t2 VDDD.t73 pfet_03v3 ad=2.535p pd=9.1u as=2.535p ps=9.1u w=3.9u l=0.28u
X38 VSSD.t151 clks.t5 a_n4162_19028.t2 VSSD.t150 nfet_03v3 ad=0.9516p pd=4.34u as=0.9516p ps=4.34u w=1.56u l=0.28u
X39 VSSD.t201 Set a_47058_19028.t2 VSSD.t200 nfet_03v3 ad=0.9516p pd=4.34u as=0.9516p ps=4.34u w=1.56u l=0.28u
X40 VSSD.t13 a_134294_19028# a_135418_19028.t1 VSSD.t12 nfet_03v3 ad=0.9516p pd=4.34u as=0.9516p ps=4.34u w=1.56u l=0.28u
X41 a_25838_19028.t2 clks.t6 a_25838_20288# VDDD.t231 pfet_03v3 ad=2.535p pd=9.1u as=2.535p ps=9.1u w=3.9u l=0.28u
X42 a_44294_19028# a_36162_19260.t2 a_39210_19028.t1 VDDD.t69 pfet_03v3 ad=2.535p pd=9.1u as=2.535p ps=9.1u w=3.9u l=0.28u
X43 a_145838_20288# a_144210_19028.t6 VDDD.t87 VDDD.t86 pfet_03v3 ad=2.535p pd=9.1u as=2.535p ps=9.1u w=3.9u l=0.28u
X44 a_54210_20288# Set VDDD.t161 VDDD.t160 pfet_03v3 ad=2.535p pd=9.1u as=2.535p ps=9.1u w=3.9u l=0.28u
X45 a_74294_19028# a_66982_19260.t2 a_77058_19028.t3 VDDD.t224 pfet_03v3 ad=2.535p pd=9.1u as=2.535p ps=9.1u w=3.9u l=0.28u
X46 a_111162_19260.t0 Valid VDDD.t50 VDDD.t49 pfet_03v3 ad=2.535p pd=9.1u as=2.535p ps=9.1u w=3.9u l=0.28u
X47 a_134294_19028# a_126162_19260.t3 a_137058_19028.t2 VSSD.t161 nfet_03v3 ad=0.9516p pd=4.34u as=0.9516p ps=4.34u w=1.56u l=0.28u
X48 a_126982_19260.t1 a_126162_19260.t4 VSSD.t160 VSSD.t159 nfet_03v3 ad=0.9516p pd=4.34u as=0.9516p ps=4.34u w=1.56u l=0.28u
X49 a_114210_19028.t2 Set VSSD.t199 VSSD.t198 nfet_03v3 ad=0.9516p pd=4.34u as=0.9516p ps=4.34u w=1.56u l=0.28u
X50 a_104294_19028# a_96982_19260.t2 a_99210_19028.t3 VSSD.t93 nfet_03v3 ad=0.9516p pd=4.34u as=0.9516p ps=4.34u w=1.56u l=0.28u
X51 a_90418_19028.t4 clks.t7 VSSD.t149 VSSD.t148 nfet_03v3 ad=0.9516p pd=4.34u as=0.9516p ps=4.34u w=1.56u l=0.28u
X52 a_66162_19260.t0 Valid VDDD.t48 VDDD.t47 pfet_03v3 ad=2.535p pd=9.1u as=2.535p ps=9.1u w=3.9u l=0.28u
X53 a_59294_19028# a_51982_19260.t3 a_54210_19028.t1 VSSD.t71 nfet_03v3 ad=0.9516p pd=4.34u as=0.9516p ps=4.34u w=1.56u l=0.28u
X54 a_6162_19260.t0 Valid VDDD.t46 VDDD.t45 pfet_03v3 ad=2.535p pd=9.1u as=2.535p ps=9.1u w=3.9u l=0.28u
X55 a_17058_20288# a_15418_19028.t6 VDDD.t211 VDDD.t210 pfet_03v3 ad=2.535p pd=9.1u as=2.535p ps=9.1u w=3.9u l=0.28u
X56 a_105418_20288# clks.t8 VDDD.t196 VDDD.t195 pfet_03v3 ad=2.535p pd=9.1u as=2.535p ps=9.1u w=3.9u l=0.28u
X57 a_69210_19028.t2 Set VSSD.t197 VSSD.t196 nfet_03v3 ad=0.9516p pd=4.34u as=0.9516p ps=4.34u w=1.56u l=0.28u
X58 a_94862_19260# a_90418_19028.t5 VDDD.t81 VDDD.t80 pfet_03v3 ad=2.535p pd=9.1u as=2.535p ps=9.1u w=3.9u l=0.28u
X59 a_9210_19028.t4 Set VSSD.t195 VSSD.t194 nfet_03v3 ad=0.9516p pd=4.34u as=0.9516p ps=4.34u w=1.56u l=0.28u
X60 a_49862_19260# a_45418_19028.t6 VSSD.t274 VSSD.t273 nfet_03v3 ad=0.9516p pd=4.34u as=0.9516p ps=4.34u w=1.56u l=0.28u
X61 a_8226_19028.t2 a_6162_19260.t3 a_10838_19028.t3 VDDD.t222 pfet_03v3 ad=2.535p pd=9.1u as=2.535p ps=9.1u w=3.9u l=0.28u
X62 a_47058_19028.t3 Set a_47058_20288# VDDD.t159 pfet_03v3 ad=2.535p pd=9.1u as=2.535p ps=9.1u w=3.9u l=0.28u
X63 a_n4162_19028.t3 clks.t9 a_n4162_20288# VDDD.t197 pfet_03v3 ad=2.535p pd=9.1u as=2.535p ps=9.1u w=3.9u l=0.28u
X64 a_135418_19028.t2 a_134294_19028# a_135418_20288# VDDD.t16 pfet_03v3 ad=2.535p pd=9.1u as=2.535p ps=9.1u w=3.9u l=0.28u
X65 a_23226_19028.t1 a_21162_19260.t2 a_15418_19028.t4 VSSD.t211 nfet_03v3 ad=0.9516p pd=4.34u as=0.9516p ps=4.34u w=1.56u l=0.28u
X66 a_51162_19260.t1 Valid VSSD.t42 VSSD.t41 nfet_03v3 ad=0.9516p pd=4.34u as=0.9516p ps=4.34u w=1.56u l=0.28u
X67 VSSD.t147 clks.t10 a_70838_19028.t3 VSSD.t146 nfet_03v3 ad=0.9516p pd=4.34u as=0.9516p ps=4.34u w=1.56u l=0.28u
X68 a_23226_19028.t2 a_21982_19260.t2 a_25838_19028.t0 VSSD.t96 nfet_03v3 ad=0.9516p pd=4.34u as=0.9516p ps=4.34u w=1.56u l=0.28u
X69 VSSD.t193 Set a_107058_19028.t4 VSSD.t192 nfet_03v3 ad=0.9516p pd=4.34u as=0.9516p ps=4.34u w=1.56u l=0.28u
X70 a_104294_19028# a_96162_19260.t2 a_99210_19028.t2 VDDD.t108 pfet_03v3 ad=2.535p pd=9.1u as=2.535p ps=9.1u w=3.9u l=0.28u
X71 a_90418_20288# clks.t11 VDDD.t199 VDDD.t198 pfet_03v3 ad=2.535p pd=9.1u as=2.535p ps=9.1u w=3.9u l=0.28u
X72 a_114210_20288# Set VDDD.t158 VDDD.t157 pfet_03v3 ad=2.535p pd=9.1u as=2.535p ps=9.1u w=3.9u l=0.28u
X73 a_134294_19028# a_126982_19260.t3 a_137058_19028.t1 VDDD.t15 pfet_03v3 ad=2.535p pd=9.1u as=2.535p ps=9.1u w=3.9u l=0.28u
X74 a_59294_19028# a_51162_19260.t2 a_54210_19028.t0 VDDD.t129 pfet_03v3 ad=2.535p pd=9.1u as=2.535p ps=9.1u w=3.9u l=0.28u
X75 a_150418_19028.t2 clks.t12 VSSD.t145 VSSD.t144 nfet_03v3 ad=0.9516p pd=4.34u as=0.9516p ps=4.34u w=1.56u l=0.28u
X76 a_62058_19028.t3 a_60418_19028.t5 VSSD.t215 VSSD.t214 nfet_03v3 ad=0.9516p pd=4.34u as=0.9516p ps=4.34u w=1.56u l=0.28u
X77 a_69210_20288# Set VDDD.t156 VDDD.t155 pfet_03v3 ad=2.535p pd=9.1u as=2.535p ps=9.1u w=3.9u l=0.28u
X78 a_126162_19260.t0 Valid VDDD.t44 VDDD.t43 pfet_03v3 ad=2.535p pd=9.1u as=2.535p ps=9.1u w=3.9u l=0.28u
X79 a_2058_19028.t2 a_418_19028.t5 VSSD.t70 VSSD.t69 nfet_03v3 ad=0.9516p pd=4.34u as=0.9516p ps=4.34u w=1.56u l=0.28u
X80 VSSD.t84 a_53226_19028.t4 a_54210_19028.t2 VSSD.t83 nfet_03v3 ad=0.9516p pd=4.34u as=0.9516p ps=4.34u w=1.56u l=0.28u
X81 a_119294_19028# a_111982_19260.t3 a_114210_19028.t1 VSSD.t59 nfet_03v3 ad=0.9516p pd=4.34u as=0.9516p ps=4.34u w=1.56u l=0.28u
X82 a_9210_20288# Set VDDD.t154 VDDD.t153 pfet_03v3 ad=2.535p pd=9.1u as=2.535p ps=9.1u w=3.9u l=0.28u
X83 a_21982_19260.t0 a_21162_19260.t3 VDDD.t167 VDDD.t166 pfet_03v3 ad=2.535p pd=9.1u as=2.535p ps=9.1u w=3.9u l=0.28u
X84 a_129210_19028.t2 Set VSSD.t191 VSSD.t190 nfet_03v3 ad=0.9516p pd=4.34u as=0.9516p ps=4.34u w=1.56u l=0.28u
X85 a_154862_19260# a_150418_19028.t3 VDDD.t209 VDDD.t208 pfet_03v3 ad=2.535p pd=9.1u as=2.535p ps=9.1u w=3.9u l=0.28u
X86 VSSD.t189 Set a_92058_19028.t1 VSSD.t188 nfet_03v3 ad=0.9516p pd=4.34u as=0.9516p ps=4.34u w=1.56u l=0.28u
X87 a_109862_19260# a_105418_19028.t6 VSSD.t257 VSSD.t256 nfet_03v3 ad=0.9516p pd=4.34u as=0.9516p ps=4.34u w=1.56u l=0.28u
X88 a_23226_19028.t3 a_21982_19260.t3 a_15418_19028.t2 VDDD.t124 pfet_03v3 ad=2.535p pd=9.1u as=2.535p ps=9.1u w=3.9u l=0.28u
X89 a_70838_19028.t4 clks.t13 a_70838_20288# VDDD.t98 pfet_03v3 ad=2.535p pd=9.1u as=2.535p ps=9.1u w=3.9u l=0.28u
X90 a_107058_19028.t3 Set a_107058_20288# VDDD.t152 pfet_03v3 ad=2.535p pd=9.1u as=2.535p ps=9.1u w=3.9u l=0.28u
X91 a_23226_19028.t0 a_21162_19260.t4 a_25838_19028.t3 VDDD.t165 pfet_03v3 ad=2.535p pd=9.1u as=2.535p ps=9.1u w=3.9u l=0.28u
X92 VSSD.t143 clks.t14 a_130838_19028.t3 VSSD.t142 nfet_03v3 ad=0.9516p pd=4.34u as=0.9516p ps=4.34u w=1.56u l=0.28u
X93 a_111162_19260.t1 Valid VSSD.t40 VSSD.t39 nfet_03v3 ad=0.9516p pd=4.34u as=0.9516p ps=4.34u w=1.56u l=0.28u
X94 a_40838_19028.t0 a_39210_19028.t5 VSSD.t111 VSSD.t110 nfet_03v3 ad=0.9516p pd=4.34u as=0.9516p ps=4.34u w=1.56u l=0.28u
X95 a_38226_19028.t3 a_36162_19260.t3 a_30418_19028.t3 VSSD.t49 nfet_03v3 ad=0.9516p pd=4.34u as=0.9516p ps=4.34u w=1.56u l=0.28u
X96 VSSD.t141 clks.t15 a_85838_19028.t1 VSSD.t140 nfet_03v3 ad=0.9516p pd=4.34u as=0.9516p ps=4.34u w=1.56u l=0.28u
X97 a_66162_19260.t1 Valid VSSD.t38 VSSD.t37 nfet_03v3 ad=0.9516p pd=4.34u as=0.9516p ps=4.34u w=1.56u l=0.28u
X98 a_62058_20288# a_60418_19028.t6 VDDD.t207 VDDD.t206 pfet_03v3 ad=2.535p pd=9.1u as=2.535p ps=9.1u w=3.9u l=0.28u
X99 a_150418_20288# clks.t16 VDDD.t100 VDDD.t99 pfet_03v3 ad=2.535p pd=9.1u as=2.535p ps=9.1u w=3.9u l=0.28u
X100 a_6162_19260.t1 Valid VSSD.t36 VSSD.t35 nfet_03v3 ad=0.9516p pd=4.34u as=0.9516p ps=4.34u w=1.56u l=0.28u
X101 a_2058_20288# a_418_19028.t6 VDDD.t83 VDDD.t82 pfet_03v3 ad=2.535p pd=9.1u as=2.535p ps=9.1u w=3.9u l=0.28u
X102 a_54210_19028.t3 a_53226_19028.t5 a_54210_20288# VDDD.t97 pfet_03v3 ad=2.535p pd=9.1u as=2.535p ps=9.1u w=3.9u l=0.28u
X103 a_119294_19028# a_111162_19260.t4 a_114210_19028.t0 VDDD.t120 pfet_03v3 ad=2.535p pd=9.1u as=2.535p ps=9.1u w=3.9u l=0.28u
X104 a_122058_19028.t1 a_120418_19028.t5 VSSD.t279 VSSD.t278 nfet_03v3 ad=0.9516p pd=4.34u as=0.9516p ps=4.34u w=1.56u l=0.28u
X105 a_94862_19260# a_90418_19028.t6 VSSD.t66 VSSD.t65 nfet_03v3 ad=0.9516p pd=4.34u as=0.9516p ps=4.34u w=1.56u l=0.28u
X106 a_129210_20288# Set VDDD.t151 VDDD.t150 pfet_03v3 ad=2.535p pd=9.1u as=2.535p ps=9.1u w=3.9u l=0.28u
X107 a_77058_19028.t4 a_75418_19028.t5 VSSD.t107 VSSD.t106 nfet_03v3 ad=0.9516p pd=4.34u as=0.9516p ps=4.34u w=1.56u l=0.28u
X108 a_92058_19028.t0 Set a_92058_20288# VDDD.t149 pfet_03v3 ad=2.535p pd=9.1u as=2.535p ps=9.1u w=3.9u l=0.28u
X109 VSSD.t255 a_113226_19028.t4 a_114210_19028.t3 VSSD.t254 nfet_03v3 ad=0.9516p pd=4.34u as=0.9516p ps=4.34u w=1.56u l=0.28u
X110 a_36982_19260.t0 a_36162_19260.t4 VDDD.t63 VDDD.t62 pfet_03v3 ad=2.535p pd=9.1u as=2.535p ps=9.1u w=3.9u l=0.28u
X111 VSSD.t187 Set a_152058_19028.t4 VSSD.t186 nfet_03v3 ad=0.9516p pd=4.34u as=0.9516p ps=4.34u w=1.56u l=0.28u
X112 VSSD.t271 a_68226_19028.t4 a_69210_19028.t4 VSSD.t270 nfet_03v3 ad=0.9516p pd=4.34u as=0.9516p ps=4.34u w=1.56u l=0.28u
X113 VSSD.t105 a_8226_19028.t4 a_9210_19028.t3 VSSD.t104 nfet_03v3 ad=0.9516p pd=4.34u as=0.9516p ps=4.34u w=1.56u l=0.28u
X114 a_68226_19028.t0 a_66982_19260.t3 a_70838_19028.t0 VSSD.t82 nfet_03v3 ad=0.9516p pd=4.34u as=0.9516p ps=4.34u w=1.56u l=0.28u
X115 a_130838_19028.t2 clks.t17 a_130838_20288# VDDD.t101 pfet_03v3 ad=2.535p pd=9.1u as=2.535p ps=9.1u w=3.9u l=0.28u
X116 VSSD.t3 a_29294_19028# a_30418_19028.t0 VSSD.t2 nfet_03v3 ad=0.9516p pd=4.34u as=0.9516p ps=4.34u w=1.56u l=0.28u
X117 a_n8838_19260.t0 Valid VDDD.t42 VDDD.t41 pfet_03v3 ad=2.535p pd=9.1u as=2.535p ps=9.1u w=3.9u l=0.28u
X118 a_38226_19028.t1 a_36982_19260.t3 a_30418_19028.t2 VDDD.t163 pfet_03v3 ad=2.535p pd=9.1u as=2.535p ps=9.1u w=3.9u l=0.28u
X119 a_40838_20288# a_39210_19028.t6 VDDD.t128 VDDD.t127 pfet_03v3 ad=2.535p pd=9.1u as=2.535p ps=9.1u w=3.9u l=0.28u
X120 a_85838_19028.t0 clks.t18 a_85838_20288# VDDD.t102 pfet_03v3 ad=2.535p pd=9.1u as=2.535p ps=9.1u w=3.9u l=0.28u
X121 a_100838_19028.t0 a_99210_19028.t5 VSSD.t5 VSSD.t4 nfet_03v3 ad=0.9516p pd=4.34u as=0.9516p ps=4.34u w=1.56u l=0.28u
X122 a_21982_19260.t1 a_21162_19260.t5 VSSD.t209 VSSD.t208 nfet_03v3 ad=0.9516p pd=4.34u as=0.9516p ps=4.34u w=1.56u l=0.28u
X123 a_29294_19028# a_21162_19260.t6 a_32058_19028.t3 VSSD.t210 nfet_03v3 ad=0.9516p pd=4.34u as=0.9516p ps=4.34u w=1.56u l=0.28u
X124 VSSD.t139 clks.t19 a_145838_19028.t4 VSSD.t138 nfet_03v3 ad=0.9516p pd=4.34u as=0.9516p ps=4.34u w=1.56u l=0.28u
X125 a_126162_19260.t1 Valid VSSD.t34 VSSD.t33 nfet_03v3 ad=0.9516p pd=4.34u as=0.9516p ps=4.34u w=1.56u l=0.28u
X126 a_122058_20288# a_120418_19028.t6 VDDD.t236 VDDD.t235 pfet_03v3 ad=2.535p pd=9.1u as=2.535p ps=9.1u w=3.9u l=0.28u
X127 a_55838_19028.t0 a_54210_19028.t5 VSSD.t227 VSSD.t226 nfet_03v3 ad=0.9516p pd=4.34u as=0.9516p ps=4.34u w=1.56u l=0.28u
X128 a_77058_20288# a_75418_19028.t6 VDDD.t123 VDDD.t122 pfet_03v3 ad=2.535p pd=9.1u as=2.535p ps=9.1u w=3.9u l=0.28u
X129 a_114210_19028.t4 a_113226_19028.t5 a_114210_20288# VDDD.t225 pfet_03v3 ad=2.535p pd=9.1u as=2.535p ps=9.1u w=3.9u l=0.28u
X130 a_154862_19260# a_150418_19028.t4 VSSD.t207 VSSD.t206 nfet_03v3 ad=0.9516p pd=4.34u as=0.9516p ps=4.34u w=1.56u l=0.28u
X131 a_69210_19028.t3 a_68226_19028.t5 a_69210_20288# VDDD.t226 pfet_03v3 ad=2.535p pd=9.1u as=2.535p ps=9.1u w=3.9u l=0.28u
X132 a_68226_19028.t2 a_66162_19260.t4 a_70838_19028.t1 VDDD.t183 pfet_03v3 ad=2.535p pd=9.1u as=2.535p ps=9.1u w=3.9u l=0.28u
X133 a_152058_19028.t3 Set a_152058_20288# VDDD.t148 pfet_03v3 ad=2.535p pd=9.1u as=2.535p ps=9.1u w=3.9u l=0.28u
X134 a_137058_19028.t0 a_135418_19028.t5 VSSD.t239 VSSD.t238 nfet_03v3 ad=0.9516p pd=4.34u as=0.9516p ps=4.34u w=1.56u l=0.28u
X135 a_9210_19028.t2 a_8226_19028.t5 a_9210_20288# VDDD.t79 pfet_03v3 ad=2.535p pd=9.1u as=2.535p ps=9.1u w=3.9u l=0.28u
X136 a_15418_19028.t3 clks.t20 VSSD.t137 VSSD.t136 nfet_03v3 ad=0.9516p pd=4.34u as=0.9516p ps=4.34u w=1.56u l=0.28u
X137 VSSD.t248 a_128226_19028.t4 a_129210_19028.t3 VSSD.t247 nfet_03v3 ad=0.9516p pd=4.34u as=0.9516p ps=4.34u w=1.56u l=0.28u
X138 a_30418_19028.t1 a_29294_19028# a_30418_20288# VDDD.t4 pfet_03v3 ad=2.535p pd=9.1u as=2.535p ps=9.1u w=3.9u l=0.28u
X139 a_128226_19028.t1 a_126982_19260.t4 a_130838_19028.t1 VSSD.t113 nfet_03v3 ad=0.9516p pd=4.34u as=0.9516p ps=4.34u w=1.56u l=0.28u
X140 a_83226_19028.t3 a_81162_19260.t2 a_75418_19028.t0 VSSD.t56 nfet_03v3 ad=0.9516p pd=4.34u as=0.9516p ps=4.34u w=1.56u l=0.28u
X141 a_83226_19028.t0 a_81982_19260.t2 a_85838_19028.t2 VSSD.t244 nfet_03v3 ad=0.9516p pd=4.34u as=0.9516p ps=4.34u w=1.56u l=0.28u
X142 a_19862_19260# a_15418_19028.t7 VDDD.t213 VDDD.t212 pfet_03v3 ad=2.535p pd=9.1u as=2.535p ps=9.1u w=3.9u l=0.28u
X143 a_100838_20288# a_99210_19028.t6 VDDD.t7 VDDD.t6 pfet_03v3 ad=2.535p pd=9.1u as=2.535p ps=9.1u w=3.9u l=0.28u
X144 a_n4162_19028.t0 a_n5790_19028.t5 VSSD.t53 VSSD.t52 nfet_03v3 ad=0.9516p pd=4.34u as=0.9516p ps=4.34u w=1.56u l=0.28u
X145 a_29294_19028# a_21982_19260.t4 a_32058_19028.t0 VDDD.t125 pfet_03v3 ad=2.535p pd=9.1u as=2.535p ps=9.1u w=3.9u l=0.28u
X146 a_145838_19028.t3 clks.t21 a_145838_20288# VDDD.t175 pfet_03v3 ad=2.535p pd=9.1u as=2.535p ps=9.1u w=3.9u l=0.28u
X147 VSSD.t7 a_44294_19028# a_45418_19028.t1 VSSD.t6 nfet_03v3 ad=0.9516p pd=4.34u as=0.9516p ps=4.34u w=1.56u l=0.28u
X148 a_55838_20288# a_54210_19028.t6 VDDD.t182 VDDD.t181 pfet_03v3 ad=2.535p pd=9.1u as=2.535p ps=9.1u w=3.9u l=0.28u
X149 a_21162_19260.t0 Valid VDDD.t40 VDDD.t39 pfet_03v3 ad=2.535p pd=9.1u as=2.535p ps=9.1u w=3.9u l=0.28u
X150 a_14294_19028# a_6982_19260.t3 a_9210_19028.t0 VSSD.t243 nfet_03v3 ad=0.9516p pd=4.34u as=0.9516p ps=4.34u w=1.56u l=0.28u
X151 a_115838_19028.t0 a_114210_19028.t5 VSSD.t232 VSSD.t231 nfet_03v3 ad=0.9516p pd=4.34u as=0.9516p ps=4.34u w=1.56u l=0.28u
X152 a_81982_19260.t0 a_81162_19260.t3 VDDD.t67 VDDD.t66 pfet_03v3 ad=2.535p pd=9.1u as=2.535p ps=9.1u w=3.9u l=0.28u
X153 a_137058_20288# a_135418_19028.t6 VDDD.t192 VDDD.t191 pfet_03v3 ad=2.535p pd=9.1u as=2.535p ps=9.1u w=3.9u l=0.28u
X154 a_24210_19028.t4 Set VSSD.t185 VSSD.t184 nfet_03v3 ad=0.9516p pd=4.34u as=0.9516p ps=4.34u w=1.56u l=0.28u
X155 a_36982_19260.t1 a_36162_19260.t5 VSSD.t51 VSSD.t50 nfet_03v3 ad=0.9516p pd=4.34u as=0.9516p ps=4.34u w=1.56u l=0.28u
X156 a_44294_19028# a_36162_19260.t6 a_47058_19028.t4 VSSD.t249 nfet_03v3 ad=0.9516p pd=4.34u as=0.9516p ps=4.34u w=1.56u l=0.28u
X157 a_15418_20288# clks.t22 VDDD.t177 VDDD.t176 pfet_03v3 ad=2.535p pd=9.1u as=2.535p ps=9.1u w=3.9u l=0.28u
X158 a_129210_19028.t4 a_128226_19028.t5 a_129210_20288# VDDD.t201 pfet_03v3 ad=2.535p pd=9.1u as=2.535p ps=9.1u w=3.9u l=0.28u
X159 a_83226_19028.t1 a_81982_19260.t3 a_75418_19028.t2 VDDD.t194 pfet_03v3 ad=2.535p pd=9.1u as=2.535p ps=9.1u w=3.9u l=0.28u
X160 a_128226_19028.t3 a_126162_19260.t5 a_130838_19028.t4 VDDD.t14 pfet_03v3 ad=2.535p pd=9.1u as=2.535p ps=9.1u w=3.9u l=0.28u
X161 a_n8838_19260.t1 Valid VSSD.t32 VSSD.t31 nfet_03v3 ad=0.9516p pd=4.34u as=0.9516p ps=4.34u w=1.56u l=0.28u
X162 a_n4162_20288# a_n5790_19028.t6 VDDD.t19 VDDD.t18 pfet_03v3 ad=2.535p pd=9.1u as=2.535p ps=9.1u w=3.9u l=0.28u
X163 a_83226_19028.t2 a_81162_19260.t4 a_85838_19028.t4 VDDD.t228 pfet_03v3 ad=2.535p pd=9.1u as=2.535p ps=9.1u w=3.9u l=0.28u
X164 a_143226_19028.t2 a_141162_19260.t2 a_135418_19028.t3 VSSD.t16 nfet_03v3 ad=0.9516p pd=4.34u as=0.9516p ps=4.34u w=1.56u l=0.28u
X165 a_45418_19028.t0 a_44294_19028# a_45418_20288# VDDD.t11 pfet_03v3 ad=2.535p pd=9.1u as=2.535p ps=9.1u w=3.9u l=0.28u
X166 VSSD.t183 Set a_17058_19028.t3 VSSD.t182 nfet_03v3 ad=0.9516p pd=4.34u as=0.9516p ps=4.34u w=1.56u l=0.28u
X167 a_143226_19028.t1 a_141982_19260.t2 a_145838_19028.t1 VSSD.t17 nfet_03v3 ad=0.9516p pd=4.34u as=0.9516p ps=4.34u w=1.56u l=0.28u
X168 a_98226_19028.t1 a_96162_19260.t3 a_90418_19028.t3 VSSD.t90 nfet_03v3 ad=0.9516p pd=4.34u as=0.9516p ps=4.34u w=1.56u l=0.28u
X169 VSSD.t48 a_104294_19028# a_105418_19028.t3 VSSD.t47 nfet_03v3 ad=0.9516p pd=4.34u as=0.9516p ps=4.34u w=1.56u l=0.28u
X170 a_14294_19028# a_6162_19260.t4 a_9210_19028.t1 VDDD.t223 pfet_03v3 ad=2.535p pd=9.1u as=2.535p ps=9.1u w=3.9u l=0.28u
X171 a_44294_19028# a_36982_19260.t4 a_47058_19028.t0 VDDD.t239 pfet_03v3 ad=2.535p pd=9.1u as=2.535p ps=9.1u w=3.9u l=0.28u
X172 a_115838_20288# a_114210_19028.t6 VDDD.t190 VDDD.t189 pfet_03v3 ad=2.535p pd=9.1u as=2.535p ps=9.1u w=3.9u l=0.28u
X173 a_24210_20288# Set VDDD.t147 VDDD.t146 pfet_03v3 ad=2.535p pd=9.1u as=2.535p ps=9.1u w=3.9u l=0.28u
X174 a_141982_19260.t0 a_141162_19260.t3 VDDD.t21 VDDD.t20 pfet_03v3 ad=2.535p pd=9.1u as=2.535p ps=9.1u w=3.9u l=0.28u
X175 a_104294_19028# a_96162_19260.t4 a_107058_19028.t2 VSSD.t87 nfet_03v3 ad=0.9516p pd=4.34u as=0.9516p ps=4.34u w=1.56u l=0.28u
X176 a_60418_19028.t3 clks.t23 VSSD.t135 VSSD.t134 nfet_03v3 ad=0.9516p pd=4.34u as=0.9516p ps=4.34u w=1.56u l=0.28u
X177 a_36162_19260.t0 Valid VDDD.t38 VDDD.t37 pfet_03v3 ad=2.535p pd=9.1u as=2.535p ps=9.1u w=3.9u l=0.28u
X178 a_29294_19028# a_21982_19260.t5 a_24210_19028.t0 VSSD.t108 nfet_03v3 ad=0.9516p pd=4.34u as=0.9516p ps=4.34u w=1.56u l=0.28u
X179 a_96982_19260.t0 a_96162_19260.t5 VDDD.t107 VDDD.t106 pfet_03v3 ad=2.535p pd=9.1u as=2.535p ps=9.1u w=3.9u l=0.28u
X180 a_n706_19028# a_n8018_19260.t4 a_n5790_19028.t4 VSSD.t92 nfet_03v3 ad=0.9516p pd=4.34u as=0.9516p ps=4.34u w=1.56u l=0.28u
X181 a_39210_19028.t4 Set VSSD.t181 VSSD.t180 nfet_03v3 ad=0.9516p pd=4.34u as=0.9516p ps=4.34u w=1.56u l=0.28u
X182 a_n8018_19260.t0 a_n8838_19260.t3 VDDD.t90 VDDD.t89 pfet_03v3 ad=2.535p pd=9.1u as=2.535p ps=9.1u w=3.9u l=0.28u
X183 a_64862_19260# a_60418_19028.t7 VDDD.t61 VDDD.t60 pfet_03v3 ad=2.535p pd=9.1u as=2.535p ps=9.1u w=3.9u l=0.28u
X184 a_143226_19028.t0 a_141982_19260.t3 a_135418_19028.t0 VDDD.t1 pfet_03v3 ad=2.535p pd=9.1u as=2.535p ps=9.1u w=3.9u l=0.28u
X185 VSSD.t219 a_n6774_19028.t4 a_n5790_19028.t3 VSSD.t218 nfet_03v3 ad=0.9516p pd=4.34u as=0.9516p ps=4.34u w=1.56u l=0.28u
X186 a_19862_19260# a_15418_19028.t8 VSSD.t253 VSSD.t252 nfet_03v3 ad=0.9516p pd=4.34u as=0.9516p ps=4.34u w=1.56u l=0.28u
X187 VSSD.t46 a_89294_19028# a_90418_19028.t2 VSSD.t45 nfet_03v3 ad=0.9516p pd=4.34u as=0.9516p ps=4.34u w=1.56u l=0.28u
X188 a_4862_19260# a_418_19028.t7 VDDD.t65 VDDD.t64 pfet_03v3 ad=2.535p pd=9.1u as=2.535p ps=9.1u w=3.9u l=0.28u
X189 a_143226_19028.t3 a_141162_19260.t4 a_145838_19028.t2 VDDD.t74 pfet_03v3 ad=2.535p pd=9.1u as=2.535p ps=9.1u w=3.9u l=0.28u
X190 a_17058_19028.t2 Set a_17058_20288# VDDD.t145 pfet_03v3 ad=2.535p pd=9.1u as=2.535p ps=9.1u w=3.9u l=0.28u
X191 a_98226_19028.t2 a_96982_19260.t3 a_90418_19028.t0 VDDD.t109 pfet_03v3 ad=2.535p pd=9.1u as=2.535p ps=9.1u w=3.9u l=0.28u
X192 a_105418_19028.t2 a_104294_19028# a_105418_20288# VDDD.t56 pfet_03v3 ad=2.535p pd=9.1u as=2.535p ps=9.1u w=3.9u l=0.28u
X193 a_21162_19260.t1 Valid VSSD.t30 VSSD.t29 nfet_03v3 ad=0.9516p pd=4.34u as=0.9516p ps=4.34u w=1.56u l=0.28u
X194 VSSD.t133 clks.t24 a_40838_19028.t4 VSSD.t132 nfet_03v3 ad=0.9516p pd=4.34u as=0.9516p ps=4.34u w=1.56u l=0.28u
X195 a_89294_19028# a_81162_19260.t5 a_92058_19028.t4 VSSD.t269 nfet_03v3 ad=0.9516p pd=4.34u as=0.9516p ps=4.34u w=1.56u l=0.28u
X196 a_81982_19260.t1 a_81162_19260.t6 VSSD.t246 VSSD.t245 nfet_03v3 ad=0.9516p pd=4.34u as=0.9516p ps=4.34u w=1.56u l=0.28u
X197 a_60418_20288# clks.t25 VDDD.t179 VDDD.t178 pfet_03v3 ad=2.535p pd=9.1u as=2.535p ps=9.1u w=3.9u l=0.28u
X198 a_104294_19028# a_96982_19260.t4 a_107058_19028.t1 VDDD.t168 pfet_03v3 ad=2.535p pd=9.1u as=2.535p ps=9.1u w=3.9u l=0.28u
X199 a_n706_19028# a_n8838_19260.t4 a_n5790_19028.t1 VDDD.t91 pfet_03v3 ad=2.535p pd=9.1u as=2.535p ps=9.1u w=3.9u l=0.28u
X200 a_29294_19028# a_21162_19260.t7 a_24210_19028.t3 VDDD.t164 pfet_03v3 ad=2.535p pd=9.1u as=2.535p ps=9.1u w=3.9u l=0.28u
X201 a_32058_19028.t4 a_30418_19028.t6 VSSD.t285 VSSD.t284 nfet_03v3 ad=0.9516p pd=4.34u as=0.9516p ps=4.34u w=1.56u l=0.28u
X202 a_120418_19028.t3 clks.t26 VSSD.t131 VSSD.t130 nfet_03v3 ad=0.9516p pd=4.34u as=0.9516p ps=4.34u w=1.56u l=0.28u
X203 a_39210_20288# Set VDDD.t144 VDDD.t143 pfet_03v3 ad=2.535p pd=9.1u as=2.535p ps=9.1u w=3.9u l=0.28u
X204 a_418_19028.t1 clks.t27 VSSD.t129 VSSD.t128 nfet_03v3 ad=0.9516p pd=4.34u as=0.9516p ps=4.34u w=1.56u l=0.28u
X205 VSSD.t103 a_23226_19028.t4 a_24210_19028.t2 VSSD.t102 nfet_03v3 ad=0.9516p pd=4.34u as=0.9516p ps=4.34u w=1.56u l=0.28u
X206 a_n5790_19028.t2 a_n6774_19028.t5 a_n5790_20288# VDDD.t170 pfet_03v3 ad=2.535p pd=9.1u as=2.535p ps=9.1u w=3.9u l=0.28u
X207 a_90418_19028.t1 a_89294_19028# a_90418_20288# VDDD.t55 pfet_03v3 ad=2.535p pd=9.1u as=2.535p ps=9.1u w=3.9u l=0.28u
X208 a_75418_19028.t1 clks.t28 VSSD.t127 VSSD.t126 nfet_03v3 ad=0.9516p pd=4.34u as=0.9516p ps=4.34u w=1.56u l=0.28u
X209 a_124862_19260# a_120418_19028.t7 VDDD.t186 VDDD.t185 pfet_03v3 ad=2.535p pd=9.1u as=2.535p ps=9.1u w=3.9u l=0.28u
X210 VSSD.t179 Set a_62058_19028.t2 VSSD.t178 nfet_03v3 ad=0.9516p pd=4.34u as=0.9516p ps=4.34u w=1.56u l=0.28u
X211 VSSD.t177 Set a_2058_19028.t1 VSSD.t176 nfet_03v3 ad=0.9516p pd=4.34u as=0.9516p ps=4.34u w=1.56u l=0.28u
X212 VSSD.t9 a_149294_19028# a_150418_19028.t1 VSSD.t8 nfet_03v3 ad=0.9516p pd=4.34u as=0.9516p ps=4.34u w=1.56u l=0.28u
X213 a_40838_19028.t3 clks.t29 a_40838_20288# VDDD.t5 pfet_03v3 ad=2.535p pd=9.1u as=2.535p ps=9.1u w=3.9u l=0.28u
X214 a_79862_19260# a_75418_19028.t7 VDDD.t172 VDDD.t171 pfet_03v3 ad=2.535p pd=9.1u as=2.535p ps=9.1u w=3.9u l=0.28u
X215 a_89294_19028# a_81982_19260.t4 a_92058_19028.t3 VDDD.t227 pfet_03v3 ad=2.535p pd=9.1u as=2.535p ps=9.1u w=3.9u l=0.28u
X216 a_149294_19028# a_141162_19260.t5 a_152058_19028.t2 VSSD.t63 nfet_03v3 ad=0.9516p pd=4.34u as=0.9516p ps=4.34u w=1.56u l=0.28u
X217 VSSD.t125 clks.t30 a_100838_19028.t3 VSSD.t124 nfet_03v3 ad=0.9516p pd=4.34u as=0.9516p ps=4.34u w=1.56u l=0.28u
X218 a_81162_19260.t0 Valid VDDD.t36 VDDD.t35 pfet_03v3 ad=2.535p pd=9.1u as=2.535p ps=9.1u w=3.9u l=0.28u
X219 a_10838_19028.t0 a_9210_19028.t5 VSSD.t86 VSSD.t85 nfet_03v3 ad=0.9516p pd=4.34u as=0.9516p ps=4.34u w=1.56u l=0.28u
X220 a_141982_19260.t1 a_141162_19260.t6 VSSD.t1 VSSD.t0 nfet_03v3 ad=0.9516p pd=4.34u as=0.9516p ps=4.34u w=1.56u l=0.28u
X221 a_32058_20288# a_30418_19028.t7 VDDD.t241 VDDD.t240 pfet_03v3 ad=2.535p pd=9.1u as=2.535p ps=9.1u w=3.9u l=0.28u
X222 a_36162_19260.t1 Valid VSSD.t28 VSSD.t27 nfet_03v3 ad=0.9516p pd=4.34u as=0.9516p ps=4.34u w=1.56u l=0.28u
X223 VSSD.t123 clks.t31 a_55838_19028.t4 VSSD.t122 nfet_03v3 ad=0.9516p pd=4.34u as=0.9516p ps=4.34u w=1.56u l=0.28u
X224 a_96982_19260.t1 a_96162_19260.t6 VSSD.t89 VSSD.t88 nfet_03v3 ad=0.9516p pd=4.34u as=0.9516p ps=4.34u w=1.56u l=0.28u
X225 a_84210_19028.t2 Set VSSD.t175 VSSD.t174 nfet_03v3 ad=0.9516p pd=4.34u as=0.9516p ps=4.34u w=1.56u l=0.28u
X226 a_74294_19028# a_66982_19260.t4 a_69210_19028.t0 VSSD.t225 nfet_03v3 ad=0.9516p pd=4.34u as=0.9516p ps=4.34u w=1.56u l=0.28u
X227 a_120418_20288# clks.t32 VDDD.t23 VDDD.t22 pfet_03v3 ad=2.535p pd=9.1u as=2.535p ps=9.1u w=3.9u l=0.28u
X228 a_418_20288# clks.t33 VDDD.t25 VDDD.t24 pfet_03v3 ad=2.535p pd=9.1u as=2.535p ps=9.1u w=3.9u l=0.28u
X229 a_24210_19028.t1 a_23226_19028.t5 a_24210_20288# VDDD.t121 pfet_03v3 ad=2.535p pd=9.1u as=2.535p ps=9.1u w=3.9u l=0.28u
X230 a_75418_20288# clks.t34 VDDD.t27 VDDD.t26 pfet_03v3 ad=2.535p pd=9.1u as=2.535p ps=9.1u w=3.9u l=0.28u
X231 a_n8018_19260.t1 a_n8838_19260.t5 VSSD.t76 VSSD.t75 nfet_03v3 ad=0.9516p pd=4.34u as=0.9516p ps=4.34u w=1.56u l=0.28u
X232 a_64862_19260# a_60418_19028.t8 VSSD.t213 VSSD.t212 nfet_03v3 ad=0.9516p pd=4.34u as=0.9516p ps=4.34u w=1.56u l=0.28u
X233 a_4862_19260# a_418_19028.t8 VSSD.t55 VSSD.t54 nfet_03v3 ad=0.9516p pd=4.34u as=0.9516p ps=4.34u w=1.56u l=0.28u
X234 a_47058_19028.t1 a_45418_19028.t7 VSSD.t58 VSSD.t57 nfet_03v3 ad=0.9516p pd=4.34u as=0.9516p ps=4.34u w=1.56u l=0.28u
X235 a_62058_19028.t1 Set a_62058_20288# VDDD.t142 pfet_03v3 ad=2.535p pd=9.1u as=2.535p ps=9.1u w=3.9u l=0.28u
X236 a_150418_19028.t0 a_149294_19028# a_150418_20288# VDDD.t12 pfet_03v3 ad=2.535p pd=9.1u as=2.535p ps=9.1u w=3.9u l=0.28u
X237 a_135418_19028.t4 clks.t35 VSSD.t121 VSSD.t120 nfet_03v3 ad=0.9516p pd=4.34u as=0.9516p ps=4.34u w=1.56u l=0.28u
X238 a_2058_19028.t0 Set a_2058_20288# VDDD.t141 pfet_03v3 ad=2.535p pd=9.1u as=2.535p ps=9.1u w=3.9u l=0.28u
X239 VSSD.t98 a_38226_19028.t4 a_39210_19028.t3 VSSD.t97 nfet_03v3 ad=0.9516p pd=4.34u as=0.9516p ps=4.34u w=1.56u l=0.28u
X240 VSSD.t173 Set a_122058_19028.t3 VSSD.t172 nfet_03v3 ad=0.9516p pd=4.34u as=0.9516p ps=4.34u w=1.56u l=0.28u
X241 a_n5790_19028.t0 Set VSSD.t171 VSSD.t170 nfet_03v3 ad=0.9516p pd=4.34u as=0.9516p ps=4.34u w=1.56u l=0.28u
X242 a_38226_19028.t0 a_36982_19260.t5 a_40838_19028.t1 VSSD.t64 nfet_03v3 ad=0.9516p pd=4.34u as=0.9516p ps=4.34u w=1.56u l=0.28u
X243 a_100838_19028.t2 clks.t36 a_100838_20288# VDDD.t75 pfet_03v3 ad=2.535p pd=9.1u as=2.535p ps=9.1u w=3.9u l=0.28u
X244 a_139862_19260# a_135418_19028.t7 VDDD.t114 VDDD.t113 pfet_03v3 ad=2.535p pd=9.1u as=2.535p ps=9.1u w=3.9u l=0.28u
X245 a_149294_19028# a_141982_19260.t4 a_152058_19028.t0 VDDD.t2 pfet_03v3 ad=2.535p pd=9.1u as=2.535p ps=9.1u w=3.9u l=0.28u
X246 VSSD.t169 Set a_77058_19028.t2 VSSD.t168 nfet_03v3 ad=0.9516p pd=4.34u as=0.9516p ps=4.34u w=1.56u l=0.28u
X247 a_10838_20288# a_9210_19028.t6 VDDD.t104 VDDD.t103 pfet_03v3 ad=2.535p pd=9.1u as=2.535p ps=9.1u w=3.9u l=0.28u
X248 a_55838_19028.t3 clks.t37 a_55838_20288# VDDD.t76 pfet_03v3 ad=2.535p pd=9.1u as=2.535p ps=9.1u w=3.9u l=0.28u