* Extracted by KLayout with GF180MCU LVS runset on : 09/01/2024 13:43

.SUBCKT PMOS_series_20_25 G D S
M$1 S S S S pfet_03v3 L=2U W=2U AS=1.3P AD=1.3P PS=5.3U PD=5.3U
M$2 S S S S pfet_03v3 L=2U W=2U AS=1.3P AD=1.3P PS=5.3U PD=5.3U
M$3 S S S S pfet_03v3 L=2U W=2U AS=1.3P AD=1.3P PS=5.3U PD=5.3U
M$4 S S S S pfet_03v3 L=2U W=2U AS=1.3P AD=1.3P PS=5.3U PD=5.3U
M$5 S S S S pfet_03v3 L=2U W=2U AS=1.3P AD=1.3P PS=5.3U PD=5.3U
M$6 S S S S pfet_03v3 L=2U W=2U AS=1.3P AD=1.3P PS=5.3U PD=5.3U
M$7 S S S S pfet_03v3 L=2U W=2U AS=1.3P AD=1.3P PS=5.3U PD=5.3U
M$8 S S S S pfet_03v3 L=2U W=2U AS=1.3P AD=1.3P PS=5.3U PD=5.3U
M$9 S S S S pfet_03v3 L=2U W=2U AS=1.3P AD=1.3P PS=5.3U PD=5.3U
M$10 S S S S pfet_03v3 L=2U W=2U AS=1.3P AD=1.3P PS=5.3U PD=5.3U
M$11 S S S S pfet_03v3 L=2U W=2U AS=1.3P AD=1.3P PS=5.3U PD=5.3U
M$12 S S S S pfet_03v3 L=2U W=2U AS=1.3P AD=1.3P PS=5.3U PD=5.3U
M$13 S S S S pfet_03v3 L=2U W=2U AS=1.3P AD=1.3P PS=5.3U PD=5.3U
M$14 S S S S pfet_03v3 L=2U W=2U AS=1.3P AD=1.3P PS=5.3U PD=5.3U
M$15 S S S S pfet_03v3 L=2U W=2U AS=1.3P AD=1.3P PS=5.3U PD=5.3U
M$16 S S S S pfet_03v3 L=2U W=2U AS=1.3P AD=1.3P PS=5.3U PD=5.3U
M$17 S S S S pfet_03v3 L=2U W=2U AS=1.3P AD=1.3P PS=5.3U PD=5.3U
M$18 S S S S pfet_03v3 L=2U W=2U AS=1.3P AD=1.3P PS=5.3U PD=5.3U
M$19 S S S S pfet_03v3 L=2U W=2U AS=1.3P AD=1.3P PS=5.3U PD=5.3U
M$20 S S S S pfet_03v3 L=2U W=2U AS=1.3P AD=1.3P PS=5.3U PD=5.3U
M$21 S S S S pfet_03v3 L=2U W=2U AS=1.3P AD=1.3P PS=5.3U PD=5.3U
M$22 S S S S pfet_03v3 L=2U W=2U AS=1.3P AD=1.3P PS=5.3U PD=5.3U
M$23 S S S S pfet_03v3 L=2U W=2U AS=1.3P AD=1.3P PS=5.3U PD=5.3U
M$24 S S S S pfet_03v3 L=2U W=2U AS=1.3P AD=1.3P PS=5.3U PD=5.3U
M$25 S S S S pfet_03v3 L=2U W=2U AS=1.3P AD=1.3P PS=5.3U PD=5.3U
M$26 S S S S pfet_03v3 L=2U W=2U AS=1.3P AD=1.3P PS=5.3U PD=5.3U
M$27 S S S S pfet_03v3 L=2U W=2U AS=1.3P AD=1.3P PS=5.3U PD=5.3U
M$28 S S S S pfet_03v3 L=2U W=2U AS=1.3P AD=1.3P PS=5.3U PD=5.3U
M$29 S S S S pfet_03v3 L=2U W=2U AS=1.3P AD=1.3P PS=5.3U PD=5.3U
M$30 S S S S pfet_03v3 L=2U W=2U AS=1.3P AD=1.3P PS=5.3U PD=5.3U
M$31 S S S S pfet_03v3 L=2U W=2U AS=1.3P AD=1.3P PS=5.3U PD=5.3U
M$32 \$36 G D S pfet_03v3 L=2U W=2U AS=1.3P AD=1.3P PS=5.3U PD=5.3U
M$33 \$37 G \$36 S pfet_03v3 L=2U W=2U AS=1.3P AD=1.3P PS=5.3U PD=5.3U
M$34 \$38 G \$37 S pfet_03v3 L=2U W=2U AS=1.3P AD=1.3P PS=5.3U PD=5.3U
M$35 \$39 G \$38 S pfet_03v3 L=2U W=2U AS=1.3P AD=1.3P PS=5.3U PD=5.3U
M$36 S S S S pfet_03v3 L=2U W=2U AS=1.3P AD=1.3P PS=5.3U PD=5.3U
M$37 S S S S pfet_03v3 L=2U W=2U AS=1.3P AD=1.3P PS=5.3U PD=5.3U
M$38 \$40 G D S pfet_03v3 L=2U W=2U AS=1.3P AD=1.3P PS=5.3U PD=5.3U
M$39 \$41 G \$40 S pfet_03v3 L=2U W=2U AS=1.3P AD=1.3P PS=5.3U PD=5.3U
M$40 \$42 G \$41 S pfet_03v3 L=2U W=2U AS=1.3P AD=1.3P PS=5.3U PD=5.3U
M$41 \$43 G \$42 S pfet_03v3 L=2U W=2U AS=1.3P AD=1.3P PS=5.3U PD=5.3U
M$42 S S S S pfet_03v3 L=2U W=2U AS=1.3P AD=1.3P PS=5.3U PD=5.3U
M$43 S S S S pfet_03v3 L=2U W=2U AS=1.3P AD=1.3P PS=5.3U PD=5.3U
M$44 \$44 G D S pfet_03v3 L=2U W=2U AS=1.3P AD=1.3P PS=5.3U PD=5.3U
M$45 \$45 G \$44 S pfet_03v3 L=2U W=2U AS=1.3P AD=1.3P PS=5.3U PD=5.3U
M$46 \$46 G \$45 S pfet_03v3 L=2U W=2U AS=1.3P AD=1.3P PS=5.3U PD=5.3U
M$47 \$47 G \$46 S pfet_03v3 L=2U W=2U AS=1.3P AD=1.3P PS=5.3U PD=5.3U
M$48 S S S S pfet_03v3 L=2U W=2U AS=1.3P AD=1.3P PS=5.3U PD=5.3U
M$49 S S S S pfet_03v3 L=2U W=2U AS=1.3P AD=1.3P PS=5.3U PD=5.3U
M$50 \$48 G D S pfet_03v3 L=2U W=2U AS=1.3P AD=1.3P PS=5.3U PD=5.3U
M$51 \$49 G \$48 S pfet_03v3 L=2U W=2U AS=1.3P AD=1.3P PS=5.3U PD=5.3U
M$52 \$50 G \$49 S pfet_03v3 L=2U W=2U AS=1.3P AD=1.3P PS=5.3U PD=5.3U
M$53 \$51 G \$50 S pfet_03v3 L=2U W=2U AS=1.3P AD=1.3P PS=5.3U PD=5.3U
M$54 S S S S pfet_03v3 L=2U W=2U AS=1.3P AD=1.3P PS=5.3U PD=5.3U
M$55 S S S S pfet_03v3 L=2U W=2U AS=1.3P AD=1.3P PS=5.3U PD=5.3U
M$56 \$52 G D S pfet_03v3 L=2U W=2U AS=1.3P AD=1.3P PS=5.3U PD=5.3U
M$57 \$53 G \$52 S pfet_03v3 L=2U W=2U AS=1.3P AD=1.3P PS=5.3U PD=5.3U
M$58 \$54 G \$53 S pfet_03v3 L=2U W=2U AS=1.3P AD=1.3P PS=5.3U PD=5.3U
M$59 \$55 G \$54 S pfet_03v3 L=2U W=2U AS=1.3P AD=1.3P PS=5.3U PD=5.3U
M$60 S S S S pfet_03v3 L=2U W=2U AS=1.3P AD=1.3P PS=5.3U PD=5.3U
M$61 S S S S pfet_03v3 L=2U W=2U AS=1.3P AD=1.3P PS=5.3U PD=5.3U
M$62 \$89 G \$88 S pfet_03v3 L=2U W=2U AS=1.3P AD=1.3P PS=5.3U PD=5.3U
M$63 \$90 G \$89 S pfet_03v3 L=2U W=2U AS=1.3P AD=1.3P PS=5.3U PD=5.3U
M$64 \$91 G \$90 S pfet_03v3 L=2U W=2U AS=1.3P AD=1.3P PS=5.3U PD=5.3U
M$65 \$39 G \$91 S pfet_03v3 L=2U W=2U AS=1.3P AD=1.3P PS=5.3U PD=5.3U
M$66 S S S S pfet_03v3 L=2U W=2U AS=1.3P AD=1.3P PS=5.3U PD=5.3U
M$67 S S S S pfet_03v3 L=2U W=2U AS=1.3P AD=1.3P PS=5.3U PD=5.3U
M$68 \$93 G \$92 S pfet_03v3 L=2U W=2U AS=1.3P AD=1.3P PS=5.3U PD=5.3U
M$69 \$94 G \$93 S pfet_03v3 L=2U W=2U AS=1.3P AD=1.3P PS=5.3U PD=5.3U
M$70 \$95 G \$94 S pfet_03v3 L=2U W=2U AS=1.3P AD=1.3P PS=5.3U PD=5.3U
M$71 \$43 G \$95 S pfet_03v3 L=2U W=2U AS=1.3P AD=1.3P PS=5.3U PD=5.3U
M$72 S S S S pfet_03v3 L=2U W=2U AS=1.3P AD=1.3P PS=5.3U PD=5.3U
M$73 S S S S pfet_03v3 L=2U W=2U AS=1.3P AD=1.3P PS=5.3U PD=5.3U
M$74 \$97 G \$96 S pfet_03v3 L=2U W=2U AS=1.3P AD=1.3P PS=5.3U PD=5.3U
M$75 \$98 G \$97 S pfet_03v3 L=2U W=2U AS=1.3P AD=1.3P PS=5.3U PD=5.3U
M$76 \$99 G \$98 S pfet_03v3 L=2U W=2U AS=1.3P AD=1.3P PS=5.3U PD=5.3U
M$77 \$47 G \$99 S pfet_03v3 L=2U W=2U AS=1.3P AD=1.3P PS=5.3U PD=5.3U
M$78 S S S S pfet_03v3 L=2U W=2U AS=1.3P AD=1.3P PS=5.3U PD=5.3U
M$79 S S S S pfet_03v3 L=2U W=2U AS=1.3P AD=1.3P PS=5.3U PD=5.3U
M$80 \$101 G \$100 S pfet_03v3 L=2U W=2U AS=1.3P AD=1.3P PS=5.3U PD=5.3U
M$81 \$102 G \$101 S pfet_03v3 L=2U W=2U AS=1.3P AD=1.3P PS=5.3U PD=5.3U
M$82 \$103 G \$102 S pfet_03v3 L=2U W=2U AS=1.3P AD=1.3P PS=5.3U PD=5.3U
M$83 \$51 G \$103 S pfet_03v3 L=2U W=2U AS=1.3P AD=1.3P PS=5.3U PD=5.3U
M$84 S S S S pfet_03v3 L=2U W=2U AS=1.3P AD=1.3P PS=5.3U PD=5.3U
M$85 S S S S pfet_03v3 L=2U W=2U AS=1.3P AD=1.3P PS=5.3U PD=5.3U
M$86 \$105 G \$104 S pfet_03v3 L=2U W=2U AS=1.3P AD=1.3P PS=5.3U PD=5.3U
M$87 \$106 G \$105 S pfet_03v3 L=2U W=2U AS=1.3P AD=1.3P PS=5.3U PD=5.3U
M$88 \$107 G \$106 S pfet_03v3 L=2U W=2U AS=1.3P AD=1.3P PS=5.3U PD=5.3U
M$89 \$55 G \$107 S pfet_03v3 L=2U W=2U AS=1.3P AD=1.3P PS=5.3U PD=5.3U
M$90 S S S S pfet_03v3 L=2U W=2U AS=1.3P AD=1.3P PS=5.3U PD=5.3U
M$91 S S S S pfet_03v3 L=2U W=2U AS=1.3P AD=1.3P PS=5.3U PD=5.3U
M$92 \$140 G \$88 S pfet_03v3 L=2U W=2U AS=1.3P AD=1.3P PS=5.3U PD=5.3U
M$93 \$141 G \$140 S pfet_03v3 L=2U W=2U AS=1.3P AD=1.3P PS=5.3U PD=5.3U
M$94 \$142 G \$141 S pfet_03v3 L=2U W=2U AS=1.3P AD=1.3P PS=5.3U PD=5.3U
M$95 \$143 G \$142 S pfet_03v3 L=2U W=2U AS=1.3P AD=1.3P PS=5.3U PD=5.3U
M$96 S S S S pfet_03v3 L=2U W=2U AS=1.3P AD=1.3P PS=5.3U PD=5.3U
M$97 S S S S pfet_03v3 L=2U W=2U AS=1.3P AD=1.3P PS=5.3U PD=5.3U
M$98 \$144 G \$92 S pfet_03v3 L=2U W=2U AS=1.3P AD=1.3P PS=5.3U PD=5.3U
M$99 \$145 G \$144 S pfet_03v3 L=2U W=2U AS=1.3P AD=1.3P PS=5.3U PD=5.3U
M$100 \$146 G \$145 S pfet_03v3 L=2U W=2U AS=1.3P AD=1.3P PS=5.3U PD=5.3U
M$101 \$147 G \$146 S pfet_03v3 L=2U W=2U AS=1.3P AD=1.3P PS=5.3U PD=5.3U
M$102 S S S S pfet_03v3 L=2U W=2U AS=1.3P AD=1.3P PS=5.3U PD=5.3U
M$103 S S S S pfet_03v3 L=2U W=2U AS=1.3P AD=1.3P PS=5.3U PD=5.3U
M$104 \$148 G \$96 S pfet_03v3 L=2U W=2U AS=1.3P AD=1.3P PS=5.3U PD=5.3U
M$105 \$149 G \$148 S pfet_03v3 L=2U W=2U AS=1.3P AD=1.3P PS=5.3U PD=5.3U
M$106 \$150 G \$149 S pfet_03v3 L=2U W=2U AS=1.3P AD=1.3P PS=5.3U PD=5.3U
M$107 \$151 G \$150 S pfet_03v3 L=2U W=2U AS=1.3P AD=1.3P PS=5.3U PD=5.3U
M$108 S S S S pfet_03v3 L=2U W=2U AS=1.3P AD=1.3P PS=5.3U PD=5.3U
M$109 S S S S pfet_03v3 L=2U W=2U AS=1.3P AD=1.3P PS=5.3U PD=5.3U
M$110 \$152 G \$100 S pfet_03v3 L=2U W=2U AS=1.3P AD=1.3P PS=5.3U PD=5.3U
M$111 \$153 G \$152 S pfet_03v3 L=2U W=2U AS=1.3P AD=1.3P PS=5.3U PD=5.3U
M$112 \$154 G \$153 S pfet_03v3 L=2U W=2U AS=1.3P AD=1.3P PS=5.3U PD=5.3U
M$113 \$155 G \$154 S pfet_03v3 L=2U W=2U AS=1.3P AD=1.3P PS=5.3U PD=5.3U
M$114 S S S S pfet_03v3 L=2U W=2U AS=1.3P AD=1.3P PS=5.3U PD=5.3U
M$115 S S S S pfet_03v3 L=2U W=2U AS=1.3P AD=1.3P PS=5.3U PD=5.3U
M$116 \$156 G \$104 S pfet_03v3 L=2U W=2U AS=1.3P AD=1.3P PS=5.3U PD=5.3U
M$117 \$157 G \$156 S pfet_03v3 L=2U W=2U AS=1.3P AD=1.3P PS=5.3U PD=5.3U
M$118 \$158 G \$157 S pfet_03v3 L=2U W=2U AS=1.3P AD=1.3P PS=5.3U PD=5.3U
M$119 \$159 G \$158 S pfet_03v3 L=2U W=2U AS=1.3P AD=1.3P PS=5.3U PD=5.3U
M$120 S S S S pfet_03v3 L=2U W=2U AS=1.3P AD=1.3P PS=5.3U PD=5.3U
M$121 S S S S pfet_03v3 L=2U W=2U AS=1.3P AD=1.3P PS=5.3U PD=5.3U
M$122 \$193 G \$192 S pfet_03v3 L=2U W=2U AS=1.3P AD=1.3P PS=5.3U PD=5.3U
M$123 \$194 G \$193 S pfet_03v3 L=2U W=2U AS=1.3P AD=1.3P PS=5.3U PD=5.3U
M$124 \$195 G \$194 S pfet_03v3 L=2U W=2U AS=1.3P AD=1.3P PS=5.3U PD=5.3U
M$125 \$143 G \$195 S pfet_03v3 L=2U W=2U AS=1.3P AD=1.3P PS=5.3U PD=5.3U
M$126 S S S S pfet_03v3 L=2U W=2U AS=1.3P AD=1.3P PS=5.3U PD=5.3U
M$127 S S S S pfet_03v3 L=2U W=2U AS=1.3P AD=1.3P PS=5.3U PD=5.3U
M$128 \$197 G \$196 S pfet_03v3 L=2U W=2U AS=1.3P AD=1.3P PS=5.3U PD=5.3U
M$129 \$198 G \$197 S pfet_03v3 L=2U W=2U AS=1.3P AD=1.3P PS=5.3U PD=5.3U
M$130 \$199 G \$198 S pfet_03v3 L=2U W=2U AS=1.3P AD=1.3P PS=5.3U PD=5.3U
M$131 \$147 G \$199 S pfet_03v3 L=2U W=2U AS=1.3P AD=1.3P PS=5.3U PD=5.3U
M$132 S S S S pfet_03v3 L=2U W=2U AS=1.3P AD=1.3P PS=5.3U PD=5.3U
M$133 S S S S pfet_03v3 L=2U W=2U AS=1.3P AD=1.3P PS=5.3U PD=5.3U
M$134 \$201 G \$200 S pfet_03v3 L=2U W=2U AS=1.3P AD=1.3P PS=5.3U PD=5.3U
M$135 \$202 G \$201 S pfet_03v3 L=2U W=2U AS=1.3P AD=1.3P PS=5.3U PD=5.3U
M$136 \$203 G \$202 S pfet_03v3 L=2U W=2U AS=1.3P AD=1.3P PS=5.3U PD=5.3U
M$137 \$151 G \$203 S pfet_03v3 L=2U W=2U AS=1.3P AD=1.3P PS=5.3U PD=5.3U
M$138 S S S S pfet_03v3 L=2U W=2U AS=1.3P AD=1.3P PS=5.3U PD=5.3U
M$139 S S S S pfet_03v3 L=2U W=2U AS=1.3P AD=1.3P PS=5.3U PD=5.3U
M$140 \$205 G \$204 S pfet_03v3 L=2U W=2U AS=1.3P AD=1.3P PS=5.3U PD=5.3U
M$141 \$206 G \$205 S pfet_03v3 L=2U W=2U AS=1.3P AD=1.3P PS=5.3U PD=5.3U
M$142 \$207 G \$206 S pfet_03v3 L=2U W=2U AS=1.3P AD=1.3P PS=5.3U PD=5.3U
M$143 \$155 G \$207 S pfet_03v3 L=2U W=2U AS=1.3P AD=1.3P PS=5.3U PD=5.3U
M$144 S S S S pfet_03v3 L=2U W=2U AS=1.3P AD=1.3P PS=5.3U PD=5.3U
M$145 S S S S pfet_03v3 L=2U W=2U AS=1.3P AD=1.3P PS=5.3U PD=5.3U
M$146 \$209 G \$208 S pfet_03v3 L=2U W=2U AS=1.3P AD=1.3P PS=5.3U PD=5.3U
M$147 \$210 G \$209 S pfet_03v3 L=2U W=2U AS=1.3P AD=1.3P PS=5.3U PD=5.3U
M$148 \$211 G \$210 S pfet_03v3 L=2U W=2U AS=1.3P AD=1.3P PS=5.3U PD=5.3U
M$149 \$159 G \$211 S pfet_03v3 L=2U W=2U AS=1.3P AD=1.3P PS=5.3U PD=5.3U
M$150 S S S S pfet_03v3 L=2U W=2U AS=1.3P AD=1.3P PS=5.3U PD=5.3U
M$151 S S S S pfet_03v3 L=2U W=2U AS=1.3P AD=1.3P PS=5.3U PD=5.3U
M$152 \$244 G \$192 S pfet_03v3 L=2U W=2U AS=1.3P AD=1.3P PS=5.3U PD=5.3U
M$153 \$245 G \$244 S pfet_03v3 L=2U W=2U AS=1.3P AD=1.3P PS=5.3U PD=5.3U
M$154 \$246 G \$245 S pfet_03v3 L=2U W=2U AS=1.3P AD=1.3P PS=5.3U PD=5.3U
M$155 S G \$246 S pfet_03v3 L=2U W=2U AS=1.3P AD=1.3P PS=5.3U PD=5.3U
M$156 S S S S pfet_03v3 L=2U W=2U AS=1.3P AD=1.3P PS=5.3U PD=5.3U
M$157 S S S S pfet_03v3 L=2U W=2U AS=1.3P AD=1.3P PS=5.3U PD=5.3U
M$158 \$247 G \$196 S pfet_03v3 L=2U W=2U AS=1.3P AD=1.3P PS=5.3U PD=5.3U
M$159 \$248 G \$247 S pfet_03v3 L=2U W=2U AS=1.3P AD=1.3P PS=5.3U PD=5.3U
M$160 \$249 G \$248 S pfet_03v3 L=2U W=2U AS=1.3P AD=1.3P PS=5.3U PD=5.3U
M$161 S G \$249 S pfet_03v3 L=2U W=2U AS=1.3P AD=1.3P PS=5.3U PD=5.3U
M$162 S S S S pfet_03v3 L=2U W=2U AS=1.3P AD=1.3P PS=5.3U PD=5.3U
M$163 S S S S pfet_03v3 L=2U W=2U AS=1.3P AD=1.3P PS=5.3U PD=5.3U
M$164 \$250 G \$200 S pfet_03v3 L=2U W=2U AS=1.3P AD=1.3P PS=5.3U PD=5.3U
M$165 \$251 G \$250 S pfet_03v3 L=2U W=2U AS=1.3P AD=1.3P PS=5.3U PD=5.3U
M$166 \$252 G \$251 S pfet_03v3 L=2U W=2U AS=1.3P AD=1.3P PS=5.3U PD=5.3U
M$167 S G \$252 S pfet_03v3 L=2U W=2U AS=1.3P AD=1.3P PS=5.3U PD=5.3U
M$168 S S S S pfet_03v3 L=2U W=2U AS=1.3P AD=1.3P PS=5.3U PD=5.3U
M$169 S S S S pfet_03v3 L=2U W=2U AS=1.3P AD=1.3P PS=5.3U PD=5.3U
M$170 \$253 G \$204 S pfet_03v3 L=2U W=2U AS=1.3P AD=1.3P PS=5.3U PD=5.3U
M$171 \$254 G \$253 S pfet_03v3 L=2U W=2U AS=1.3P AD=1.3P PS=5.3U PD=5.3U
M$172 \$255 G \$254 S pfet_03v3 L=2U W=2U AS=1.3P AD=1.3P PS=5.3U PD=5.3U
M$173 S G \$255 S pfet_03v3 L=2U W=2U AS=1.3P AD=1.3P PS=5.3U PD=5.3U
M$174 S S S S pfet_03v3 L=2U W=2U AS=1.3P AD=1.3P PS=5.3U PD=5.3U
M$175 S S S S pfet_03v3 L=2U W=2U AS=1.3P AD=1.3P PS=5.3U PD=5.3U
M$176 \$256 G \$208 S pfet_03v3 L=2U W=2U AS=1.3P AD=1.3P PS=5.3U PD=5.3U
M$177 \$257 G \$256 S pfet_03v3 L=2U W=2U AS=1.3P AD=1.3P PS=5.3U PD=5.3U
M$178 \$258 G \$257 S pfet_03v3 L=2U W=2U AS=1.3P AD=1.3P PS=5.3U PD=5.3U
M$179 S G \$258 S pfet_03v3 L=2U W=2U AS=1.3P AD=1.3P PS=5.3U PD=5.3U
M$180 S S S S pfet_03v3 L=2U W=2U AS=1.3P AD=1.3P PS=5.3U PD=5.3U
M$181 S S S S pfet_03v3 L=2U W=2U AS=1.3P AD=1.3P PS=5.3U PD=5.3U
M$182 S S S S pfet_03v3 L=2U W=2U AS=1.3P AD=1.3P PS=5.3U PD=5.3U
M$183 S S S S pfet_03v3 L=2U W=2U AS=1.3P AD=1.3P PS=5.3U PD=5.3U
M$184 S S S S pfet_03v3 L=2U W=2U AS=1.3P AD=1.3P PS=5.3U PD=5.3U
M$185 S S S S pfet_03v3 L=2U W=2U AS=1.3P AD=1.3P PS=5.3U PD=5.3U
M$186 S S S S pfet_03v3 L=2U W=2U AS=1.3P AD=1.3P PS=5.3U PD=5.3U
M$187 S S S S pfet_03v3 L=2U W=2U AS=1.3P AD=1.3P PS=5.3U PD=5.3U
M$188 S S S S pfet_03v3 L=2U W=2U AS=1.3P AD=1.3P PS=5.3U PD=5.3U
M$189 S S S S pfet_03v3 L=2U W=2U AS=1.3P AD=1.3P PS=5.3U PD=5.3U
M$190 S S S S pfet_03v3 L=2U W=2U AS=1.3P AD=1.3P PS=5.3U PD=5.3U
M$191 S S S S pfet_03v3 L=2U W=2U AS=1.3P AD=1.3P PS=5.3U PD=5.3U
M$192 S S S S pfet_03v3 L=2U W=2U AS=1.3P AD=1.3P PS=5.3U PD=5.3U
M$193 S S S S pfet_03v3 L=2U W=2U AS=1.3P AD=1.3P PS=5.3U PD=5.3U
M$194 S S S S pfet_03v3 L=2U W=2U AS=1.3P AD=1.3P PS=5.3U PD=5.3U
M$195 S S S S pfet_03v3 L=2U W=2U AS=1.3P AD=1.3P PS=5.3U PD=5.3U
M$196 S S S S pfet_03v3 L=2U W=2U AS=1.3P AD=1.3P PS=5.3U PD=5.3U
M$197 S S S S pfet_03v3 L=2U W=2U AS=1.3P AD=1.3P PS=5.3U PD=5.3U
M$198 S S S S pfet_03v3 L=2U W=2U AS=1.3P AD=1.3P PS=5.3U PD=5.3U
M$199 S S S S pfet_03v3 L=2U W=2U AS=1.3P AD=1.3P PS=5.3U PD=5.3U
M$200 S S S S pfet_03v3 L=2U W=2U AS=1.3P AD=1.3P PS=5.3U PD=5.3U
M$201 S S S S pfet_03v3 L=2U W=2U AS=1.3P AD=1.3P PS=5.3U PD=5.3U
M$202 S S S S pfet_03v3 L=2U W=2U AS=1.3P AD=1.3P PS=5.3U PD=5.3U
M$203 S S S S pfet_03v3 L=2U W=2U AS=1.3P AD=1.3P PS=5.3U PD=5.3U
M$204 S S S S pfet_03v3 L=2U W=2U AS=1.3P AD=1.3P PS=5.3U PD=5.3U
M$205 S S S S pfet_03v3 L=2U W=2U AS=1.3P AD=1.3P PS=5.3U PD=5.3U
M$206 S S S S pfet_03v3 L=2U W=2U AS=1.3P AD=1.3P PS=5.3U PD=5.3U
M$207 S S S S pfet_03v3 L=2U W=2U AS=1.3P AD=1.3P PS=5.3U PD=5.3U
M$208 S S S S pfet_03v3 L=2U W=2U AS=1.3P AD=1.3P PS=5.3U PD=5.3U
M$209 S S S S pfet_03v3 L=2U W=2U AS=1.3P AD=1.3P PS=5.3U PD=5.3U
M$210 S S S S pfet_03v3 L=2U W=2U AS=1.3P AD=1.3P PS=5.3U PD=5.3U
M$211 S S S S pfet_03v3 L=2U W=2U AS=1.3P AD=1.3P PS=5.3U PD=5.3U
M$212 S S S S pfet_03v3 L=2U W=2U AS=1.3P AD=1.3P PS=5.3U PD=5.3U
M$213 S S S S pfet_03v3 L=2U W=2U AS=1.3P AD=1.3P PS=5.3U PD=5.3U
M$214 S S S S pfet_03v3 L=2U W=2U AS=1.3P AD=1.3P PS=5.3U PD=5.3U
M$215 S S S S pfet_03v3 L=2U W=2U AS=1.3P AD=1.3P PS=5.3U PD=5.3U
M$216 S S S S pfet_03v3 L=2U W=2U AS=1.3P AD=1.3P PS=5.3U PD=5.3U
M$217 S S S S pfet_03v3 L=2U W=2U AS=1.3P AD=1.3P PS=5.3U PD=5.3U
M$218 S S S S pfet_03v3 L=2U W=2U AS=1.3P AD=1.3P PS=5.3U PD=5.3U
M$219 S S S S pfet_03v3 L=2U W=2U AS=1.3P AD=1.3P PS=5.3U PD=5.3U
M$220 S S S S pfet_03v3 L=2U W=2U AS=1.3P AD=1.3P PS=5.3U PD=5.3U
M$221 S S S S pfet_03v3 L=2U W=2U AS=1.3P AD=1.3P PS=5.3U PD=5.3U
M$222 S S S S pfet_03v3 L=2U W=2U AS=1.3P AD=1.3P PS=5.3U PD=5.3U
M$223 S S S S pfet_03v3 L=2U W=2U AS=1.3P AD=1.3P PS=5.3U PD=5.3U
M$224 S S S S pfet_03v3 L=2U W=2U AS=1.3P AD=1.3P PS=5.3U PD=5.3U
M$225 S S S S pfet_03v3 L=2U W=2U AS=1.3P AD=1.3P PS=5.3U PD=5.3U
M$226 S S S S pfet_03v3 L=2U W=2U AS=1.3P AD=1.3P PS=5.3U PD=5.3U
M$227 S S S S pfet_03v3 L=2U W=2U AS=1.3P AD=1.3P PS=5.3U PD=5.3U
M$228 S S S S pfet_03v3 L=2U W=2U AS=1.3P AD=1.3P PS=5.3U PD=5.3U
M$229 S S S S pfet_03v3 L=2U W=2U AS=1.3P AD=1.3P PS=5.3U PD=5.3U
M$230 S S S S pfet_03v3 L=2U W=2U AS=1.3P AD=1.3P PS=5.3U PD=5.3U
M$231 S S S S pfet_03v3 L=2U W=2U AS=1.3P AD=1.3P PS=5.3U PD=5.3U
M$232 S S S S pfet_03v3 L=2U W=2U AS=1.3P AD=1.3P PS=5.3U PD=5.3U
M$233 S S S S pfet_03v3 L=2U W=2U AS=1.3P AD=1.3P PS=5.3U PD=5.3U
M$234 S S S S pfet_03v3 L=2U W=2U AS=1.3P AD=1.3P PS=5.3U PD=5.3U
M$235 S S S S pfet_03v3 L=2U W=2U AS=1.3P AD=1.3P PS=5.3U PD=5.3U
M$236 S S S S pfet_03v3 L=2U W=2U AS=1.3P AD=1.3P PS=5.3U PD=5.3U
M$237 S S S S pfet_03v3 L=2U W=2U AS=1.3P AD=1.3P PS=5.3U PD=5.3U
M$238 S S S S pfet_03v3 L=2U W=2U AS=1.3P AD=1.3P PS=5.3U PD=5.3U
M$239 S S S S pfet_03v3 L=2U W=2U AS=1.3P AD=1.3P PS=5.3U PD=5.3U
M$240 S S S S pfet_03v3 L=2U W=2U AS=1.3P AD=1.3P PS=5.3U PD=5.3U
M$241 S S S S pfet_03v3 L=2U W=2U AS=1.3P AD=1.3P PS=5.3U PD=5.3U
M$242 \$352 G D S pfet_03v3 L=2U W=2U AS=1.3P AD=1.3P PS=5.3U PD=5.3U
M$243 \$353 G \$352 S pfet_03v3 L=2U W=2U AS=1.3P AD=1.3P PS=5.3U PD=5.3U
M$244 \$354 G \$353 S pfet_03v3 L=2U W=2U AS=1.3P AD=1.3P PS=5.3U PD=5.3U
M$245 \$355 G \$354 S pfet_03v3 L=2U W=2U AS=1.3P AD=1.3P PS=5.3U PD=5.3U
M$246 S S S S pfet_03v3 L=2U W=2U AS=1.3P AD=1.3P PS=5.3U PD=5.3U
M$247 S S S S pfet_03v3 L=2U W=2U AS=1.3P AD=1.3P PS=5.3U PD=5.3U
M$248 \$356 G D S pfet_03v3 L=2U W=2U AS=1.3P AD=1.3P PS=5.3U PD=5.3U
M$249 \$357 G \$356 S pfet_03v3 L=2U W=2U AS=1.3P AD=1.3P PS=5.3U PD=5.3U
M$250 \$358 G \$357 S pfet_03v3 L=2U W=2U AS=1.3P AD=1.3P PS=5.3U PD=5.3U
M$251 \$359 G \$358 S pfet_03v3 L=2U W=2U AS=1.3P AD=1.3P PS=5.3U PD=5.3U
M$252 S S S S pfet_03v3 L=2U W=2U AS=1.3P AD=1.3P PS=5.3U PD=5.3U
M$253 S S S S pfet_03v3 L=2U W=2U AS=1.3P AD=1.3P PS=5.3U PD=5.3U
M$254 \$360 G D S pfet_03v3 L=2U W=2U AS=1.3P AD=1.3P PS=5.3U PD=5.3U
M$255 \$361 G \$360 S pfet_03v3 L=2U W=2U AS=1.3P AD=1.3P PS=5.3U PD=5.3U
M$256 \$362 G \$361 S pfet_03v3 L=2U W=2U AS=1.3P AD=1.3P PS=5.3U PD=5.3U
M$257 \$363 G \$362 S pfet_03v3 L=2U W=2U AS=1.3P AD=1.3P PS=5.3U PD=5.3U
M$258 S S S S pfet_03v3 L=2U W=2U AS=1.3P AD=1.3P PS=5.3U PD=5.3U
M$259 S S S S pfet_03v3 L=2U W=2U AS=1.3P AD=1.3P PS=5.3U PD=5.3U
M$260 \$364 G D S pfet_03v3 L=2U W=2U AS=1.3P AD=1.3P PS=5.3U PD=5.3U
M$261 \$365 G \$364 S pfet_03v3 L=2U W=2U AS=1.3P AD=1.3P PS=5.3U PD=5.3U
M$262 \$366 G \$365 S pfet_03v3 L=2U W=2U AS=1.3P AD=1.3P PS=5.3U PD=5.3U
M$263 \$367 G \$366 S pfet_03v3 L=2U W=2U AS=1.3P AD=1.3P PS=5.3U PD=5.3U
M$264 S S S S pfet_03v3 L=2U W=2U AS=1.3P AD=1.3P PS=5.3U PD=5.3U
M$265 S S S S pfet_03v3 L=2U W=2U AS=1.3P AD=1.3P PS=5.3U PD=5.3U
M$266 \$368 G D S pfet_03v3 L=2U W=2U AS=1.3P AD=1.3P PS=5.3U PD=5.3U
M$267 \$369 G \$368 S pfet_03v3 L=2U W=2U AS=1.3P AD=1.3P PS=5.3U PD=5.3U
M$268 \$370 G \$369 S pfet_03v3 L=2U W=2U AS=1.3P AD=1.3P PS=5.3U PD=5.3U
M$269 \$371 G \$370 S pfet_03v3 L=2U W=2U AS=1.3P AD=1.3P PS=5.3U PD=5.3U
M$270 S S S S pfet_03v3 L=2U W=2U AS=1.3P AD=1.3P PS=5.3U PD=5.3U
M$271 S S S S pfet_03v3 L=2U W=2U AS=1.3P AD=1.3P PS=5.3U PD=5.3U
M$272 \$407 G \$406 S pfet_03v3 L=2U W=2U AS=1.3P AD=1.3P PS=5.3U PD=5.3U
M$273 \$408 G \$407 S pfet_03v3 L=2U W=2U AS=1.3P AD=1.3P PS=5.3U PD=5.3U
M$274 \$409 G \$408 S pfet_03v3 L=2U W=2U AS=1.3P AD=1.3P PS=5.3U PD=5.3U
M$275 \$355 G \$409 S pfet_03v3 L=2U W=2U AS=1.3P AD=1.3P PS=5.3U PD=5.3U
M$276 S S S S pfet_03v3 L=2U W=2U AS=1.3P AD=1.3P PS=5.3U PD=5.3U
M$277 S S S S pfet_03v3 L=2U W=2U AS=1.3P AD=1.3P PS=5.3U PD=5.3U
M$278 \$411 G \$410 S pfet_03v3 L=2U W=2U AS=1.3P AD=1.3P PS=5.3U PD=5.3U
M$279 \$412 G \$411 S pfet_03v3 L=2U W=2U AS=1.3P AD=1.3P PS=5.3U PD=5.3U
M$280 \$413 G \$412 S pfet_03v3 L=2U W=2U AS=1.3P AD=1.3P PS=5.3U PD=5.3U
M$281 \$359 G \$413 S pfet_03v3 L=2U W=2U AS=1.3P AD=1.3P PS=5.3U PD=5.3U
M$282 S S S S pfet_03v3 L=2U W=2U AS=1.3P AD=1.3P PS=5.3U PD=5.3U
M$283 S S S S pfet_03v3 L=2U W=2U AS=1.3P AD=1.3P PS=5.3U PD=5.3U
M$284 \$415 G \$414 S pfet_03v3 L=2U W=2U AS=1.3P AD=1.3P PS=5.3U PD=5.3U
M$285 \$416 G \$415 S pfet_03v3 L=2U W=2U AS=1.3P AD=1.3P PS=5.3U PD=5.3U
M$286 \$417 G \$416 S pfet_03v3 L=2U W=2U AS=1.3P AD=1.3P PS=5.3U PD=5.3U
M$287 \$363 G \$417 S pfet_03v3 L=2U W=2U AS=1.3P AD=1.3P PS=5.3U PD=5.3U
M$288 S S S S pfet_03v3 L=2U W=2U AS=1.3P AD=1.3P PS=5.3U PD=5.3U
M$289 S S S S pfet_03v3 L=2U W=2U AS=1.3P AD=1.3P PS=5.3U PD=5.3U
M$290 \$419 G \$418 S pfet_03v3 L=2U W=2U AS=1.3P AD=1.3P PS=5.3U PD=5.3U
M$291 \$420 G \$419 S pfet_03v3 L=2U W=2U AS=1.3P AD=1.3P PS=5.3U PD=5.3U
M$292 \$421 G \$420 S pfet_03v3 L=2U W=2U AS=1.3P AD=1.3P PS=5.3U PD=5.3U
M$293 \$367 G \$421 S pfet_03v3 L=2U W=2U AS=1.3P AD=1.3P PS=5.3U PD=5.3U
M$294 S S S S pfet_03v3 L=2U W=2U AS=1.3P AD=1.3P PS=5.3U PD=5.3U
M$295 S S S S pfet_03v3 L=2U W=2U AS=1.3P AD=1.3P PS=5.3U PD=5.3U
M$296 \$423 G \$422 S pfet_03v3 L=2U W=2U AS=1.3P AD=1.3P PS=5.3U PD=5.3U
M$297 \$424 G \$423 S pfet_03v3 L=2U W=2U AS=1.3P AD=1.3P PS=5.3U PD=5.3U
M$298 \$425 G \$424 S pfet_03v3 L=2U W=2U AS=1.3P AD=1.3P PS=5.3U PD=5.3U
M$299 \$371 G \$425 S pfet_03v3 L=2U W=2U AS=1.3P AD=1.3P PS=5.3U PD=5.3U
M$300 S S S S pfet_03v3 L=2U W=2U AS=1.3P AD=1.3P PS=5.3U PD=5.3U
M$301 S S S S pfet_03v3 L=2U W=2U AS=1.3P AD=1.3P PS=5.3U PD=5.3U
M$302 \$457 G \$406 S pfet_03v3 L=2U W=2U AS=1.3P AD=1.3P PS=5.3U PD=5.3U
M$303 \$458 G \$457 S pfet_03v3 L=2U W=2U AS=1.3P AD=1.3P PS=5.3U PD=5.3U
M$304 \$459 G \$458 S pfet_03v3 L=2U W=2U AS=1.3P AD=1.3P PS=5.3U PD=5.3U
M$305 \$460 G \$459 S pfet_03v3 L=2U W=2U AS=1.3P AD=1.3P PS=5.3U PD=5.3U
M$306 S S S S pfet_03v3 L=2U W=2U AS=1.3P AD=1.3P PS=5.3U PD=5.3U
M$307 S S S S pfet_03v3 L=2U W=2U AS=1.3P AD=1.3P PS=5.3U PD=5.3U
M$308 \$461 G \$410 S pfet_03v3 L=2U W=2U AS=1.3P AD=1.3P PS=5.3U PD=5.3U
M$309 \$462 G \$461 S pfet_03v3 L=2U W=2U AS=1.3P AD=1.3P PS=5.3U PD=5.3U
M$310 \$463 G \$462 S pfet_03v3 L=2U W=2U AS=1.3P AD=1.3P PS=5.3U PD=5.3U
M$311 \$464 G \$463 S pfet_03v3 L=2U W=2U AS=1.3P AD=1.3P PS=5.3U PD=5.3U
M$312 S S S S pfet_03v3 L=2U W=2U AS=1.3P AD=1.3P PS=5.3U PD=5.3U
M$313 S S S S pfet_03v3 L=2U W=2U AS=1.3P AD=1.3P PS=5.3U PD=5.3U
M$314 \$465 G \$414 S pfet_03v3 L=2U W=2U AS=1.3P AD=1.3P PS=5.3U PD=5.3U
M$315 \$466 G \$465 S pfet_03v3 L=2U W=2U AS=1.3P AD=1.3P PS=5.3U PD=5.3U
M$316 \$467 G \$466 S pfet_03v3 L=2U W=2U AS=1.3P AD=1.3P PS=5.3U PD=5.3U
M$317 \$468 G \$467 S pfet_03v3 L=2U W=2U AS=1.3P AD=1.3P PS=5.3U PD=5.3U
M$318 S S S S pfet_03v3 L=2U W=2U AS=1.3P AD=1.3P PS=5.3U PD=5.3U
M$319 S S S S pfet_03v3 L=2U W=2U AS=1.3P AD=1.3P PS=5.3U PD=5.3U
M$320 \$469 G \$418 S pfet_03v3 L=2U W=2U AS=1.3P AD=1.3P PS=5.3U PD=5.3U
M$321 \$470 G \$469 S pfet_03v3 L=2U W=2U AS=1.3P AD=1.3P PS=5.3U PD=5.3U
M$322 \$471 G \$470 S pfet_03v3 L=2U W=2U AS=1.3P AD=1.3P PS=5.3U PD=5.3U
M$323 \$472 G \$471 S pfet_03v3 L=2U W=2U AS=1.3P AD=1.3P PS=5.3U PD=5.3U
M$324 S S S S pfet_03v3 L=2U W=2U AS=1.3P AD=1.3P PS=5.3U PD=5.3U
M$325 S S S S pfet_03v3 L=2U W=2U AS=1.3P AD=1.3P PS=5.3U PD=5.3U
M$326 \$473 G \$422 S pfet_03v3 L=2U W=2U AS=1.3P AD=1.3P PS=5.3U PD=5.3U
M$327 \$474 G \$473 S pfet_03v3 L=2U W=2U AS=1.3P AD=1.3P PS=5.3U PD=5.3U
M$328 \$475 G \$474 S pfet_03v3 L=2U W=2U AS=1.3P AD=1.3P PS=5.3U PD=5.3U
M$329 \$476 G \$475 S pfet_03v3 L=2U W=2U AS=1.3P AD=1.3P PS=5.3U PD=5.3U
M$330 S S S S pfet_03v3 L=2U W=2U AS=1.3P AD=1.3P PS=5.3U PD=5.3U
M$331 S S S S pfet_03v3 L=2U W=2U AS=1.3P AD=1.3P PS=5.3U PD=5.3U
M$332 \$510 G \$509 S pfet_03v3 L=2U W=2U AS=1.3P AD=1.3P PS=5.3U PD=5.3U
M$333 \$511 G \$510 S pfet_03v3 L=2U W=2U AS=1.3P AD=1.3P PS=5.3U PD=5.3U
M$334 \$512 G \$511 S pfet_03v3 L=2U W=2U AS=1.3P AD=1.3P PS=5.3U PD=5.3U
M$335 \$460 G \$512 S pfet_03v3 L=2U W=2U AS=1.3P AD=1.3P PS=5.3U PD=5.3U
M$336 S S S S pfet_03v3 L=2U W=2U AS=1.3P AD=1.3P PS=5.3U PD=5.3U
M$337 S S S S pfet_03v3 L=2U W=2U AS=1.3P AD=1.3P PS=5.3U PD=5.3U
M$338 \$514 G \$513 S pfet_03v3 L=2U W=2U AS=1.3P AD=1.3P PS=5.3U PD=5.3U
M$339 \$515 G \$514 S pfet_03v3 L=2U W=2U AS=1.3P AD=1.3P PS=5.3U PD=5.3U
M$340 \$516 G \$515 S pfet_03v3 L=2U W=2U AS=1.3P AD=1.3P PS=5.3U PD=5.3U
M$341 \$464 G \$516 S pfet_03v3 L=2U W=2U AS=1.3P AD=1.3P PS=5.3U PD=5.3U
M$342 S S S S pfet_03v3 L=2U W=2U AS=1.3P AD=1.3P PS=5.3U PD=5.3U
M$343 S S S S pfet_03v3 L=2U W=2U AS=1.3P AD=1.3P PS=5.3U PD=5.3U
M$344 \$518 G \$517 S pfet_03v3 L=2U W=2U AS=1.3P AD=1.3P PS=5.3U PD=5.3U
M$345 \$519 G \$518 S pfet_03v3 L=2U W=2U AS=1.3P AD=1.3P PS=5.3U PD=5.3U
M$346 \$520 G \$519 S pfet_03v3 L=2U W=2U AS=1.3P AD=1.3P PS=5.3U PD=5.3U
M$347 \$468 G \$520 S pfet_03v3 L=2U W=2U AS=1.3P AD=1.3P PS=5.3U PD=5.3U
M$348 S S S S pfet_03v3 L=2U W=2U AS=1.3P AD=1.3P PS=5.3U PD=5.3U
M$349 S S S S pfet_03v3 L=2U W=2U AS=1.3P AD=1.3P PS=5.3U PD=5.3U
M$350 \$522 G \$521 S pfet_03v3 L=2U W=2U AS=1.3P AD=1.3P PS=5.3U PD=5.3U
M$351 \$523 G \$522 S pfet_03v3 L=2U W=2U AS=1.3P AD=1.3P PS=5.3U PD=5.3U
M$352 \$524 G \$523 S pfet_03v3 L=2U W=2U AS=1.3P AD=1.3P PS=5.3U PD=5.3U
M$353 \$472 G \$524 S pfet_03v3 L=2U W=2U AS=1.3P AD=1.3P PS=5.3U PD=5.3U
M$354 S S S S pfet_03v3 L=2U W=2U AS=1.3P AD=1.3P PS=5.3U PD=5.3U
M$355 S S S S pfet_03v3 L=2U W=2U AS=1.3P AD=1.3P PS=5.3U PD=5.3U
M$356 \$526 G \$525 S pfet_03v3 L=2U W=2U AS=1.3P AD=1.3P PS=5.3U PD=5.3U
M$357 \$527 G \$526 S pfet_03v3 L=2U W=2U AS=1.3P AD=1.3P PS=5.3U PD=5.3U
M$358 \$528 G \$527 S pfet_03v3 L=2U W=2U AS=1.3P AD=1.3P PS=5.3U PD=5.3U
M$359 \$476 G \$528 S pfet_03v3 L=2U W=2U AS=1.3P AD=1.3P PS=5.3U PD=5.3U
M$360 S S S S pfet_03v3 L=2U W=2U AS=1.3P AD=1.3P PS=5.3U PD=5.3U
M$361 S S S S pfet_03v3 L=2U W=2U AS=1.3P AD=1.3P PS=5.3U PD=5.3U
M$362 \$561 G \$509 S pfet_03v3 L=2U W=2U AS=1.3P AD=1.3P PS=5.3U PD=5.3U
M$363 \$562 G \$561 S pfet_03v3 L=2U W=2U AS=1.3P AD=1.3P PS=5.3U PD=5.3U
M$364 \$563 G \$562 S pfet_03v3 L=2U W=2U AS=1.3P AD=1.3P PS=5.3U PD=5.3U
M$365 S G \$563 S pfet_03v3 L=2U W=2U AS=1.3P AD=1.3P PS=5.3U PD=5.3U
M$366 S S S S pfet_03v3 L=2U W=2U AS=1.3P AD=1.3P PS=5.3U PD=5.3U
M$367 S S S S pfet_03v3 L=2U W=2U AS=1.3P AD=1.3P PS=5.3U PD=5.3U
M$368 \$564 G \$513 S pfet_03v3 L=2U W=2U AS=1.3P AD=1.3P PS=5.3U PD=5.3U
M$369 \$565 G \$564 S pfet_03v3 L=2U W=2U AS=1.3P AD=1.3P PS=5.3U PD=5.3U
M$370 \$566 G \$565 S pfet_03v3 L=2U W=2U AS=1.3P AD=1.3P PS=5.3U PD=5.3U
M$371 S G \$566 S pfet_03v3 L=2U W=2U AS=1.3P AD=1.3P PS=5.3U PD=5.3U
M$372 S S S S pfet_03v3 L=2U W=2U AS=1.3P AD=1.3P PS=5.3U PD=5.3U
M$373 S S S S pfet_03v3 L=2U W=2U AS=1.3P AD=1.3P PS=5.3U PD=5.3U
M$374 \$567 G \$517 S pfet_03v3 L=2U W=2U AS=1.3P AD=1.3P PS=5.3U PD=5.3U
M$375 \$568 G \$567 S pfet_03v3 L=2U W=2U AS=1.3P AD=1.3P PS=5.3U PD=5.3U
M$376 \$569 G \$568 S pfet_03v3 L=2U W=2U AS=1.3P AD=1.3P PS=5.3U PD=5.3U
M$377 S G \$569 S pfet_03v3 L=2U W=2U AS=1.3P AD=1.3P PS=5.3U PD=5.3U
M$378 S S S S pfet_03v3 L=2U W=2U AS=1.3P AD=1.3P PS=5.3U PD=5.3U
M$379 S S S S pfet_03v3 L=2U W=2U AS=1.3P AD=1.3P PS=5.3U PD=5.3U
M$380 \$570 G \$521 S pfet_03v3 L=2U W=2U AS=1.3P AD=1.3P PS=5.3U PD=5.3U
M$381 \$571 G \$570 S pfet_03v3 L=2U W=2U AS=1.3P AD=1.3P PS=5.3U PD=5.3U
M$382 \$572 G \$571 S pfet_03v3 L=2U W=2U AS=1.3P AD=1.3P PS=5.3U PD=5.3U
M$383 S G \$572 S pfet_03v3 L=2U W=2U AS=1.3P AD=1.3P PS=5.3U PD=5.3U
M$384 S S S S pfet_03v3 L=2U W=2U AS=1.3P AD=1.3P PS=5.3U PD=5.3U
M$385 S S S S pfet_03v3 L=2U W=2U AS=1.3P AD=1.3P PS=5.3U PD=5.3U
M$386 \$573 G \$525 S pfet_03v3 L=2U W=2U AS=1.3P AD=1.3P PS=5.3U PD=5.3U
M$387 \$574 G \$573 S pfet_03v3 L=2U W=2U AS=1.3P AD=1.3P PS=5.3U PD=5.3U
M$388 \$575 G \$574 S pfet_03v3 L=2U W=2U AS=1.3P AD=1.3P PS=5.3U PD=5.3U
M$389 S G \$575 S pfet_03v3 L=2U W=2U AS=1.3P AD=1.3P PS=5.3U PD=5.3U
M$390 S S S S pfet_03v3 L=2U W=2U AS=1.3P AD=1.3P PS=5.3U PD=5.3U
M$391 S S S S pfet_03v3 L=2U W=2U AS=1.3P AD=1.3P PS=5.3U PD=5.3U
M$392 S S S S pfet_03v3 L=2U W=2U AS=1.3P AD=1.3P PS=5.3U PD=5.3U
M$393 S S S S pfet_03v3 L=2U W=2U AS=1.3P AD=1.3P PS=5.3U PD=5.3U
M$394 S S S S pfet_03v3 L=2U W=2U AS=1.3P AD=1.3P PS=5.3U PD=5.3U
M$395 S S S S pfet_03v3 L=2U W=2U AS=1.3P AD=1.3P PS=5.3U PD=5.3U
M$396 S S S S pfet_03v3 L=2U W=2U AS=1.3P AD=1.3P PS=5.3U PD=5.3U
M$397 S S S S pfet_03v3 L=2U W=2U AS=1.3P AD=1.3P PS=5.3U PD=5.3U
M$398 S S S S pfet_03v3 L=2U W=2U AS=1.3P AD=1.3P PS=5.3U PD=5.3U
M$399 S S S S pfet_03v3 L=2U W=2U AS=1.3P AD=1.3P PS=5.3U PD=5.3U
M$400 S S S S pfet_03v3 L=2U W=2U AS=1.3P AD=1.3P PS=5.3U PD=5.3U
M$401 S S S S pfet_03v3 L=2U W=2U AS=1.3P AD=1.3P PS=5.3U PD=5.3U
M$402 S S S S pfet_03v3 L=2U W=2U AS=1.3P AD=1.3P PS=5.3U PD=5.3U
M$403 S S S S pfet_03v3 L=2U W=2U AS=1.3P AD=1.3P PS=5.3U PD=5.3U
M$404 S S S S pfet_03v3 L=2U W=2U AS=1.3P AD=1.3P PS=5.3U PD=5.3U
M$405 S S S S pfet_03v3 L=2U W=2U AS=1.3P AD=1.3P PS=5.3U PD=5.3U
M$406 S S S S pfet_03v3 L=2U W=2U AS=1.3P AD=1.3P PS=5.3U PD=5.3U
M$407 S S S S pfet_03v3 L=2U W=2U AS=1.3P AD=1.3P PS=5.3U PD=5.3U
M$408 S S S S pfet_03v3 L=2U W=2U AS=1.3P AD=1.3P PS=5.3U PD=5.3U
M$409 S S S S pfet_03v3 L=2U W=2U AS=1.3P AD=1.3P PS=5.3U PD=5.3U
M$410 S S S S pfet_03v3 L=2U W=2U AS=1.3P AD=1.3P PS=5.3U PD=5.3U
M$411 S S S S pfet_03v3 L=2U W=2U AS=1.3P AD=1.3P PS=5.3U PD=5.3U
M$412 S S S S pfet_03v3 L=2U W=2U AS=1.3P AD=1.3P PS=5.3U PD=5.3U
M$413 S S S S pfet_03v3 L=2U W=2U AS=1.3P AD=1.3P PS=5.3U PD=5.3U
M$414 S S S S pfet_03v3 L=2U W=2U AS=1.3P AD=1.3P PS=5.3U PD=5.3U
M$415 S S S S pfet_03v3 L=2U W=2U AS=1.3P AD=1.3P PS=5.3U PD=5.3U
M$416 S S S S pfet_03v3 L=2U W=2U AS=1.3P AD=1.3P PS=5.3U PD=5.3U
M$417 S S S S pfet_03v3 L=2U W=2U AS=1.3P AD=1.3P PS=5.3U PD=5.3U
M$418 S S S S pfet_03v3 L=2U W=2U AS=1.3P AD=1.3P PS=5.3U PD=5.3U
M$419 S S S S pfet_03v3 L=2U W=2U AS=1.3P AD=1.3P PS=5.3U PD=5.3U
M$420 S S S S pfet_03v3 L=2U W=2U AS=1.3P AD=1.3P PS=5.3U PD=5.3U
M$421 S S S S pfet_03v3 L=2U W=2U AS=1.3P AD=1.3P PS=5.3U PD=5.3U
M$422 S S S S pfet_03v3 L=2U W=2U AS=1.3P AD=1.3P PS=5.3U PD=5.3U
M$423 S S S S pfet_03v3 L=2U W=2U AS=1.3P AD=1.3P PS=5.3U PD=5.3U
M$424 S S S S pfet_03v3 L=2U W=2U AS=1.3P AD=1.3P PS=5.3U PD=5.3U
M$425 S S S S pfet_03v3 L=2U W=2U AS=1.3P AD=1.3P PS=5.3U PD=5.3U
M$426 S S S S pfet_03v3 L=2U W=2U AS=1.3P AD=1.3P PS=5.3U PD=5.3U
M$427 S S S S pfet_03v3 L=2U W=2U AS=1.3P AD=1.3P PS=5.3U PD=5.3U
M$428 S S S S pfet_03v3 L=2U W=2U AS=1.3P AD=1.3P PS=5.3U PD=5.3U
M$429 S S S S pfet_03v3 L=2U W=2U AS=1.3P AD=1.3P PS=5.3U PD=5.3U
M$430 S S S S pfet_03v3 L=2U W=2U AS=1.3P AD=1.3P PS=5.3U PD=5.3U
M$431 S S S S pfet_03v3 L=2U W=2U AS=1.3P AD=1.3P PS=5.3U PD=5.3U
M$432 S S S S pfet_03v3 L=2U W=2U AS=1.3P AD=1.3P PS=5.3U PD=5.3U